@<TRIPOS>MOLECULE
3R137
137   139    1
SMALL
USER_CHARGES


@<TRIPOS>ATOM
      1 CA         30.0406   -1.5416    0.7287 C.3       0 UNK        -0.2020 
      2 C          29.3454   -2.7037    1.4341 C.2       0 UNK         0.4855 
      3 O          29.5650   -2.8985    2.6282 O.2       0 UNK        -0.5197 
      4 N          28.5187   -3.5110    0.7554 N.am      1 UNK        -0.4892 
      5 CA         28.1046   -3.3961   -0.6488 C.3       1 UNK         0.0835 
      6 C6         27.9163   -4.7939   -1.3077 C.3       12 UNK        -0.0855 
      7 S7         29.3304   -5.9498   -1.1780 S.3       12 UNK        -0.2931 
      8 C8         30.7985   -4.9489   -1.6139 C.3       12 UNK         0.0378 
      9 C9         30.6625   -4.1480   -2.9069 C.ar      12 UNK        -0.0802 
     10 C10        31.1885   -2.8524   -2.9690 C.ar      12 UNK        -0.0944 
     11 C11        31.0567   -2.0805   -4.1266 C.ar      12 UNK        -0.0787 
     12 C12        30.3724   -2.6141   -5.2222 C.ar      12 UNK        -0.0862 
     13 C13        29.8782   -3.9200   -5.1947 C.ar      12 UNK        -0.0733 
     14 C14        30.0372   -4.6871   -4.0379 C.ar      12 UNK        -0.0832 
     15 C15        29.2018   -4.5038   -6.4283 C.3       12 UNK         0.0240 
     16 S16        27.4582   -4.9591   -6.1543 S.3       12 UNK        -0.2522 
     17 C17        26.7121   -3.4101   -5.5510 C.3       12 UNK        -0.0967 
     18 CA         26.3494   -2.4105   -6.6842 C.3       5 UNK         0.0660 
     19 N          25.0639   -1.7528   -6.4416 N.am      5 UNK        -0.4015 
     20 C          24.3852   -1.0265   -7.3413 C.2       4 UNK         0.4946 
     21 O          24.7315   -0.8863   -8.5142 O.2       4 UNK        -0.5353 
     22 CA         23.1207   -0.3088   -6.8355 C.3       4 UNK         0.0277 
     23 CB         21.8914   -1.2206   -6.9754 C.3       4 UNK        -0.1981 
     24 N          23.2386    0.1464   -5.4460 N.am      4 UNK        -0.4209 
     25 C          24.0765    1.1106   -5.0374 C.2       3 UNK         0.4942 
     26 O          24.7969    1.7547   -5.7968 O.2       3 UNK        -0.5208 
     27 CA         24.1708    1.3625   -3.5230 C.3       3 UNK         0.0250 
     28 CB         23.0824    2.3488   -3.0707 C.3       3 UNK        -0.1990 
     29 N          24.0981    0.1397   -2.7146 N.am      3 UNK        -0.4232 
     30 C          24.9527   -0.8887   -2.8043 C.2       2 UNK         0.4993 
     31 O          25.8805   -0.9423   -3.6168 O.2       2 UNK        -0.5286 
     32 CA         24.6752   -2.0876   -1.8855 C.3       2 UNK         0.0209 
     33 CB         23.6266   -3.0158   -2.5221 C.3       2 UNK        -0.1931 
     34 N          25.8951   -2.8558   -1.6289 N.am      2 UNK        -0.4546 
     35 C          26.8459   -2.4973   -0.7547 C.2       1 UNK         0.5154 
     36 O          26.7479   -1.4962   -0.0405 O.2       1 UNK        -0.5181 
     37 C          27.4500   -1.3530   -6.8804 C.2       5 UNK         0.5014 
     38 O          28.1840   -1.4056   -7.8685 O.2       5 UNK        -0.5248 
     39 N          27.5126   -0.3886   -5.9502 N.am      6 UNK        -0.4434 
     40 CA         28.4329    0.7478   -5.9860 C.3       6 UNK         0.0363 
     41 CB         28.3001    1.5635   -4.6915 C.3       6 UNK        -0.1936 
     42 C          28.2423    1.6380   -7.2235 C.2       6 UNK         0.5081 
     43 O          29.2337    2.0377   -7.8270 O.2       6 UNK        -0.5248 
     44 N          26.9875    1.8967   -7.6157 N.am      7 UNK        -0.4718 
     45 CA         26.6414    2.6331   -8.8350 C.3       7 UNK         0.0273 
     46 CB         25.1267    2.8895   -8.8729 C.3       7 UNK        -0.1935 
     47 C          27.1013    1.9290  -10.1240 C.2       7 UNK         0.5018 
     48 O          27.5251    2.6087  -11.0593 O.2       7 UNK        -0.5186 
     49 N          27.0197    0.5913  -10.1495 N.am      8 UNK        -0.4240 
     50 CA         27.4666   -0.2381  -11.2683 C.3       8 UNK         0.0235 
     51 CB         26.8226   -1.6313  -11.1696 C.3       8 UNK        -0.2000 
     52 C          28.9983   -0.3452  -11.3472 C.2       8 UNK         0.4941 
     53 O          29.5611   -0.1551  -12.4261 O.2       8 UNK        -0.5273 
     54 N          29.6430   -0.6642  -10.2166 N.am      9 UNK        -0.4262 
     55 CA         31.0848   -0.9234  -10.1375 C.3       9 UNK         0.0264 
     56 CB         31.3491   -1.8698   -8.9590 C.3       9 UNK        -0.1955 
     57 C          31.9509    0.3413   -9.9991 C.2       9 UNK         0.5031 
     58 O          33.1692    0.2432  -10.1573 O.2       9 UNK        -0.5390 
     59 N          31.3387    1.4849   -9.6633 N.am      10 UNK        -0.4204 
     60 CA         31.9285    2.7960   -9.3576 C.3       10 UNK         0.0237 
     61 CB         32.8038    3.3361  -10.5064 C.3       10 UNK        -0.1985 
     62 C          32.6647    2.8321   -8.0066 C.2       10 UNK         0.4970 
     63 O          32.4013    3.7325   -7.2088 O.2       10 UNK        -0.4914 
     64 N          33.5579    1.8611   -7.7733 N.am      11 UNK        -0.4285 
     65 CA         34.3304    1.6559   -6.5329 C.3       11 UNK         0.1007 
     66 C          35.2952    2.8239   -6.1563 C.2       11 UNK         0.5703 
     67 N          35.6986    3.6715   -7.0959 N.am      11 UNK        -0.7361 
     68 O          35.7175    2.9484   -5.0087 O.2       11 UNK        -0.4986 
     69 C69        33.4370    1.1850   -5.3457 C.3       12 UNK        -0.0947 
     70 S70        32.6797   -0.4377   -5.6786 S.3       12 UNK        -0.2240 
     71 C71        31.6563   -0.6780   -4.1893 C.3       12 UNK         0.0194 
     72 H72        29.3346   -0.9235    0.1762 H         1 UNK         0.0906 
     73 H73        30.5361   -0.8982    1.4554 H         1 UNK         0.0906 
     74 H74        30.8001   -1.9101    0.0416 H         1 UNK         0.0906 
     75 H75        28.0760   -4.2644    1.2618 H         1 UNK         0.3140 
     76 H76        28.8740   -2.8723   -1.2149 H         1 UNK         0.1085 
     77 H77        27.6982   -4.6868   -2.3718 H         1 UNK         0.0836 
     78 H78        27.0541   -5.3027   -0.8715 H         1 UNK         0.0836 
     79 H79        31.6561   -5.6160   -1.7093 H         1 UNK         0.0731 
     80 H80        31.0214   -4.2882   -0.7754 H         1 UNK         0.0731 
     81 H81        31.7068   -2.4425   -2.1134 H         1 UNK         0.1312 
     82 H82        30.2482   -2.0159   -6.1108 H         1 UNK         0.1406 
     83 H83        29.6538   -5.6982   -4.0145 H         1 UNK         0.1631 
     84 H84        29.7485   -5.3948   -6.7394 H         1 UNK         0.0717 
     85 H85        29.2567   -3.8111   -7.2687 H         1 UNK         0.0717 
     86 H86        25.8072   -3.7184   -5.0268 H         1 UNK         0.0934 
     87 H87        27.3395   -2.9640   -4.7764 H         1 UNK         0.0934 
     88 H88        26.2480   -2.9582   -7.6239 H         1 UNK         0.0739 
     89 H89        24.7444   -1.7448   -5.4844 H         1 UNK         0.3093 
     90 H90        22.9672    0.5700   -7.4656 H         1 UNK         0.0818 
     91 H91        21.7715   -1.5558   -8.0068 H         1 UNK         0.0819 
     92 H92        21.9721   -2.1113   -6.3510 H         1 UNK         0.0819 
     93 H93        20.9757   -0.6975   -6.6991 H         1 UNK         0.0819 
     94 H94        22.6675   -0.3204   -4.7565 H         1 UNK         0.3041 
     95 H95        25.1435    1.8200   -3.3311 H         1 UNK         0.0784 
     96 H96        23.1309    3.2737   -3.6476 H         1 UNK         0.0793 
     97 H97        22.0809    1.9364   -3.1999 H         1 UNK         0.0793 
     98 H98        23.2024    2.6188   -2.0212 H         1 UNK         0.0793 
     99 H99        23.3537    0.0964   -2.0330 H         1 UNK         0.3024 
    100 H100       24.2866   -1.7166   -0.9339 H         1 UNK         0.1171 
    101 H101       23.4049   -3.8638   -1.8736 H         1 UNK         0.0786 
    102 H102       22.6859   -2.4904   -2.6920 H         1 UNK         0.0786 
    103 H103       23.9577   -3.4093   -3.4833 H         1 UNK         0.0786 
    104 H104       26.0423   -3.6698   -2.2057 H         1 UNK         0.2977 
    105 H105       26.8861   -0.4477   -5.1499 H         1 UNK         0.3127 
    106 H106       29.4452    0.3439   -6.0361 H         1 UNK         0.0770 
    107 H107       27.3104    2.0110   -4.5974 H         1 UNK         0.0814 
    108 H108       29.0293    2.3744   -4.6676 H         1 UNK         0.0814 
    109 H109       28.4715    0.9438   -3.8111 H         1 UNK         0.0814 
    110 H110       26.2154    1.6068   -7.0191 H         1 UNK         0.2983 
    111 H111       27.1499    3.5988   -8.7918 H         1 UNK         0.0947 
    112 H112       24.8474    3.4539   -9.7636 H         1 UNK         0.0806 
    113 H113       24.8006    3.4673   -8.0079 H         1 UNK         0.0806 
    114 H114       24.5614    1.9572   -8.8854 H         1 UNK         0.0806 
    115 H115       26.6336    0.1106   -9.3455 H         1 UNK         0.3000 
    116 H116       27.1189    0.2240  -12.1950 H         1 UNK         0.0850 
    117 H117       27.1298   -2.2638  -12.0036 H         1 UNK         0.0810 
    118 H118       25.7347   -1.5656  -11.1953 H         1 UNK         0.0810 
    119 H119       27.1011   -2.1456  -10.2493 H         1 UNK         0.0810 
    120 H120       29.0984   -0.8339   -9.3712 H         1 UNK         0.3040 
    121 H121       31.4001   -1.4316  -11.0514 H         1 UNK         0.0766 
    122 H122       30.7755   -2.7923   -9.0478 H         1 UNK         0.0812 
    123 H123       31.0823   -1.3926   -8.0186 H         1 UNK         0.0812 
    124 H124       32.4032   -2.1437   -8.8986 H         1 UNK         0.0812 
    125 H125       30.3526    1.4266   -9.4288 H         1 UNK         0.3205 
    126 H126       31.0774    3.4723   -9.2625 H         1 UNK         0.0754 
    127 H127       33.1154    4.3616  -10.3040 H         1 UNK         0.0769 
    128 H128       32.2567    3.3438  -11.4492 H         1 UNK         0.0769 
    129 H129       33.7102    2.7477  -10.6497 H         1 UNK         0.0769 
    130 H130       33.6982    1.1751   -8.5087 H         1 UNK         0.2981 
    131 H131       35.0097    0.8336   -6.7600 H         1 UNK         0.0541 
    132 H132       35.3721    3.5761   -8.0438 H         1 UNK         0.3459 
    133 H133       36.3308    4.4168   -6.8500 H         1 UNK         0.3459 
    134 H134       34.0234    1.0811   -4.4314 H         1 UNK         0.0612 
    135 H135       32.6540    1.9139   -5.1315 H         1 UNK         0.0612 
    136 H136       30.8569    0.0618   -4.1706 H         1 UNK         0.0624 
    137 H137       32.2750   -0.4896   -3.3106 H         1 UNK         0.0624 
@<TRIPOS>BOND
     1    1    2 1    
     2    1   72 1    
     3    1   73 1    
     4    1   74 1    
     5    2    3 2    
     6    2    4 am   BACKBONE|DICT|INTERRES
     7    4    5 1    
     8    4   75 1    
     9    5    6 1    
    10    5   35 1    
    11    5   76 1    
    12    6    7 1    
    13    6   77 1    
    14    6   78 1    
    15    7    8 1    
    16    8    9 1    
    17    8   79 1    
    18    8   80 1    
    19    9   10 ar   
    20    9   14 ar   
    21   10   11 ar   
    22   10   81 1    
    23   11   12 ar   
    24   11   71 1    
    25   12   13 ar   
    26   12   82 1    
    27   13   14 ar   
    28   13   15 1    
    29   14   83 1    
    30   15   16 1    
    31   15   84 1    
    32   15   85 1    
    33   16   17 1    
    34   17   18 1    
    35   17   86 1    
    36   17   87 1    
    37   18   19 1    
    38   18   37 1    
    39   18   88 1    
    40   19   20 am   BACKBONE|DICT|INTERRES
    41   19   89 1    
    42   20   21 2    
    43   20   22 1    
    44   22   23 1    
    45   22   24 1    
    46   22   90 1    
    47   23   91 1    
    48   23   92 1    
    49   23   93 1    
    50   24   25 am   BACKBONE|DICT|INTERRES
    51   24   94 1    
    52   25   26 2    
    53   25   27 1    
    54   27   28 1    
    55   27   29 1    
    56   27   95 1    
    57   28   96 1    
    58   28   97 1    
    59   28   98 1    
    60   29   30 am   BACKBONE|DICT|INTERRES
    61   29   99 1    
    62   30   31 2    
    63   30   32 1    
    64   32   33 1    
    65   32   34 1    
    66   32  100 1    
    67   33  101 1    
    68   33  102 1    
    69   33  103 1    
    70   34   35 am   BACKBONE|DICT|INTERRES
    71   34  104 1    
    72   35   36 2    
    73   37   38 2    
    74   37   39 am   BACKBONE|DICT|INTERRES
    75   39   40 1    
    76   39  105 1    
    77   40   41 1    
    78   40   42 1    
    79   40  106 1    
    80   41  107 1    
    81   41  108 1    
    82   41  109 1    
    83   42   43 2    
    84   42   44 am   BACKBONE|DICT|INTERRES
    85   44   45 1    
    86   44  110 1    
    87   45   46 1    
    88   45   47 1    
    89   45  111 1    
    90   46  112 1    
    91   46  113 1    
    92   46  114 1    
    93   47   48 2    
    94   47   49 am   BACKBONE|DICT|INTERRES
    95   49   50 1    
    96   49  115 1    
    97   50   51 1    
    98   50   52 1    
    99   50  116 1    
   100   51  117 1    
   101   51  118 1    
   102   51  119 1    
   103   52   53 2    
   104   52   54 am   BACKBONE|DICT|INTERRES
   105   54   55 1    
   106   54  120 1    
   107   55   56 1    
   108   55   57 1    
   109   55  121 1    
   110   56  122 1    
   111   56  123 1    
   112   56  124 1    
   113   57   58 2    
   114   57   59 am   BACKBONE|DICT|INTERRES
   115   59   60 1    
   116   59  125 1    
   117   60   61 1    
   118   60   62 1    
   119   60  126 1    
   120   61  127 1    
   121   61  128 1    
   122   61  129 1    
   123   62   63 2    
   124   62   64 am   BACKBONE|DICT|INTERRES
   125   64   65 1    
   126   64  130 1    
   127   65   66 1    
   128   65   69 1    
   129   65  131 1    
   130   66   67 am   BACKBONE|DICT|INTERRES
   131   66   68 2    
   132   67  132 1    
   133   67  133 1    
   134   69   70 1    
   135   69  134 1    
   136   69  135 1    
   137   70   71 1    
   138   71  136 1    
   139   71  137 1    
@<TRIPOS>SUBSTRUCTURE
     1 UNK         1 GROUP             0       ****    0 ROOT    
