@<TRIPOS>MOLECULE
3R137
137   139    1
SMALL
USER_CHARGES


@<TRIPOS>ATOM
      1 CA         23.9971   -6.3779   -4.0270 C.3       0 UNK        -0.2020 
      2 C          25.1328   -5.4145   -3.7188 C.2       0 UNK         0.4855 
      3 O          25.5280   -4.6409   -4.5901 O.2       0 UNK        -0.5197 
      4 N          25.6493   -5.4457   -2.4818 N.am      1 UNK        -0.4892 
      5 CA         26.7550   -4.6134   -1.9853 C.3       1 UNK         0.0835 
      6 C6         28.1103   -4.9798   -2.6551 C.3       12 UNK        -0.0855 
      7 S7         29.5221   -4.7856   -1.5190 S.3       12 UNK        -0.2931 
      8 C8         30.8711   -4.3557   -2.6762 C.3       12 UNK         0.0378 
      9 C9         31.0043   -2.8724   -3.0307 C.ar      12 UNK        -0.0802 
     10 C10        31.7729   -2.5188   -4.1443 C.ar      12 UNK        -0.0944 
     11 C11        31.9911   -1.1763   -4.4687 C.ar      12 UNK        -0.0787 
     12 C12        31.4105   -0.1736   -3.6877 C.ar      12 UNK        -0.0862 
     13 C13        30.6384   -0.5057   -2.5718 C.ar      12 UNK        -0.0733 
     14 C14        30.4466   -1.8539   -2.2470 C.ar      12 UNK        -0.0832 
     15 C15        30.0684    0.5887   -1.6776 C.3       12 UNK         0.0240 
     16 S16        28.2892    0.3668   -1.3680 S.3       12 UNK        -0.2522 
     17 C17        27.5194    1.6431   -2.4106 C.3       12 UNK        -0.0967 
     18 CA         27.7319    1.5172   -3.9444 C.3       5 UNK         0.0660 
     19 N          27.4653    0.1814   -4.4958 N.am      5 UNK        -0.4015 
     20 C          27.6490   -0.1539   -5.7857 C.2       4 UNK         0.4946 
     21 O          28.1286    0.5982   -6.6349 O.2       4 UNK        -0.5353 
     22 CA         27.1535   -1.5360   -6.2367 C.3       4 UNK         0.0277 
     23 CB         28.2044   -2.6143   -5.9339 C.3       4 UNK        -0.1981 
     24 N          25.8574   -1.8840   -5.6478 N.am      4 UNK        -0.4209 
     25 C          24.7226   -1.2056   -5.8849 C.2       3 UNK         0.4942 
     26 O          24.6385   -0.2688   -6.6776 O.2       3 UNK        -0.5208 
     27 CA         23.4845   -1.5836   -5.0574 C.3       3 UNK         0.0250 
     28 CB         22.7465   -2.7841   -5.6706 C.3       3 UNK        -0.1990 
     29 N          23.8203   -1.8477   -3.6576 N.am      3 UNK        -0.4232 
     30 C          24.2742   -0.9143   -2.8076 C.2       2 UNK         0.4993 
     31 O          24.3852    0.2774   -3.0975 O.2       2 UNK        -0.5286 
     32 CA         24.7146   -1.3933   -1.4137 C.3       2 UNK         0.0209 
     33 CB         23.5428   -1.3170   -0.4225 C.3       2 UNK        -0.1931 
     34 N          25.2741   -2.7501   -1.4099 N.am      2 UNK        -0.4546 
     35 C          26.3933   -3.1117   -2.0564 C.2       1 UNK         0.5154 
     36 O          27.0590   -2.3306   -2.7362 O.2       1 UNK        -0.5181 
     37 C          26.8899    2.6011   -4.6493 C.2       5 UNK         0.5014 
     38 O          27.4433    3.6110   -5.0858 O.2       5 UNK        -0.5248 
     39 N          25.5707    2.3694   -4.7368 N.am      6 UNK        -0.4434 
     40 CA         24.5937    3.2856   -5.3297 C.3       6 UNK         0.0363 
     41 CB         23.1723    2.7750   -5.0444 C.3       6 UNK        -0.1936 
     42 C          24.7976    3.5056   -6.8371 C.2       6 UNK         0.5081 
     43 O          24.7201    4.6453   -7.2970 O.2       6 UNK        -0.5248 
     44 N          25.0593    2.4208   -7.5777 N.am      7 UNK        -0.4718 
     45 CA         25.3216    2.4515   -9.0190 C.3       7 UNK         0.0273 
     46 CB         25.1224    1.0389   -9.5933 C.3       7 UNK        -0.1935 
     47 C          26.7258    2.9678   -9.3773 C.2       7 UNK         0.5018 
     48 O          26.9339    3.3642  -10.5248 O.2       7 UNK        -0.5186 
     49 N          27.6591    2.9149   -8.4138 N.am      8 UNK        -0.4240 
     50 CA         29.1064    3.1111   -8.5624 C.3       8 UNK         0.0235 
     51 CB         29.4419    4.5675   -8.9486 C.3       8 UNK        -0.2000 
     52 C          29.7137    2.0628   -9.5164 C.2       8 UNK         0.4941 
     53 O          30.4998    2.4060  -10.4022 O.2       8 UNK        -0.5273 
     54 N          29.2985    0.8041   -9.3304 N.am      9 UNK        -0.4262 
     55 CA         29.7166   -0.3487  -10.1247 C.3       9 UNK         0.0264 
     56 CB         28.5102   -1.2830  -10.3145 C.3       9 UNK        -0.1955 
     57 C          30.8565   -1.0838   -9.4104 C.2       9 UNK         0.5031 
     58 O          30.9147   -1.0567   -8.1807 O.2       9 UNK        -0.5390 
     59 N          31.7128   -1.7527  -10.1959 N.am      10 UNK        -0.4204 
     60 CA         32.9274   -2.4636   -9.7716 C.3       10 UNK         0.0237 
     61 CB         32.5812   -3.6717   -8.8685 C.3       10 UNK        -0.1985 
     62 C          33.9820   -1.5055   -9.1743 C.2       10 UNK         0.4970 
     63 O          34.0194   -0.3361   -9.5640 O.2       10 UNK        -0.4914 
     64 N          34.8439   -2.0201   -8.2842 N.am      11 UNK        -0.4285 
     65 CA         35.9500   -1.2930   -7.6283 C.3       11 UNK         0.1007 
     66 C          37.0692   -0.7979   -8.5997 C.2       11 UNK         0.5703 
     67 N          37.1978   -1.3582   -9.7971 N.am      11 UNK        -0.7361 
     68 O          37.8605    0.0779   -8.2568 O.2       11 UNK        -0.4986 
     69 C69        35.4472   -0.1848   -6.6532 C.3       12 UNK        -0.0947 
     70 S70        34.6353   -0.8654   -5.1694 S.3       12 UNK        -0.2240 
     71 C71        32.8823   -0.8114   -5.6440 C.3       12 UNK         0.0194 
     72 H72        24.2561   -6.9975   -4.8851 H         1 UNK         0.0906 
     73 H73        23.7804   -7.0372   -3.1868 H         1 UNK         0.0906 
     74 H74        23.0898   -5.8250   -4.2683 H         1 UNK         0.0906 
     75 H75        25.2692   -6.1000   -1.8106 H         1 UNK         0.3140 
     76 H76        26.8337   -4.8497   -0.9226 H         1 UNK         0.1085 
     77 H77        28.2733   -4.4213   -3.5762 H         1 UNK         0.0836 
     78 H78        28.1050   -6.0287   -2.9557 H         1 UNK         0.0836 
     79 H79        30.7559   -4.9463   -3.5867 H         1 UNK         0.0731 
     80 H80        31.8115   -4.6741   -2.2247 H         1 UNK         0.0731 
     81 H81        32.2323   -3.2907   -4.7468 H         1 UNK         0.1312 
     82 H82        31.5847    0.8647   -3.9346 H         1 UNK         0.1406 
     83 H83        29.8646   -2.0982   -1.3700 H         1 UNK         0.1631 
     84 H84        30.2529    1.5797   -2.0948 H         1 UNK         0.0717 
     85 H85        30.5917    0.5581   -0.7212 H         1 UNK         0.0717 
     86 H86        26.4557    1.6292   -2.1672 H         1 UNK         0.0934 
     87 H87        27.8821    2.6134   -2.0650 H         1 UNK         0.0934 
     88 H88        28.7810    1.7323   -4.1567 H         1 UNK         0.0739 
     89 H89        27.1329   -0.5264   -3.8483 H         1 UNK         0.3093 
     90 H90        27.0094   -1.5010   -7.3176 H         1 UNK         0.0818 
     91 H91        29.1019   -2.4530   -6.5328 H         1 UNK         0.0819 
     92 H92        28.5155   -2.5890   -4.8902 H         1 UNK         0.0819 
     93 H93        27.8346   -3.6149   -6.1574 H         1 UNK         0.0819 
     94 H94        25.8394   -2.6719   -5.0065 H         1 UNK         0.3041 
     95 H95        22.8034   -0.7300   -5.0761 H         1 UNK         0.0784 
     96 H96        22.4218   -2.5570   -6.6869 H         1 UNK         0.0793 
     97 H97        23.3786   -3.6695   -5.7265 H         1 UNK         0.0793 
     98 H98        21.8559   -3.0402   -5.0967 H         1 UNK         0.0793 
     99 H99        23.7913   -2.8076   -3.3485 H         1 UNK         0.3024 
    100 H100       25.4963   -0.7112   -1.0729 H         1 UNK         0.1171 
    101 H101       23.8631   -1.5617    0.5904 H         1 UNK         0.0786 
    102 H102       23.1234   -0.3102   -0.3928 H         1 UNK         0.0786 
    103 H103       22.7359   -1.9983   -0.6953 H         1 UNK         0.0786 
    104 H104       24.7634   -3.4536   -0.8957 H         1 UNK         0.2977 
    105 H105       25.1958    1.5248   -4.3089 H         1 UNK         0.3127 
    106 H106       24.7111    4.2532   -4.8374 H         1 UNK         0.0770 
    107 H107       23.0010    1.7928   -5.4864 H         1 UNK         0.0814 
    108 H108       22.4232    3.4537   -5.4543 H         1 UNK         0.0814 
    109 H109       22.9871    2.6952   -3.9731 H         1 UNK         0.0814 
    110 H110       25.0473    1.5030   -7.1351 H         1 UNK         0.2983 
    111 H111       24.5965    3.1190   -9.4900 H         1 UNK         0.0947 
    112 H112       25.2748    1.0284  -10.6734 H         1 UNK         0.0806 
    113 H113       24.1135    0.6720   -9.4040 H         1 UNK         0.0806 
    114 H114       25.8241    0.3264   -9.1572 H         1 UNK         0.0806 
    115 H115       27.3756    2.5303   -7.5202 H         1 UNK         0.3000 
    116 H116       29.5414    2.9205   -7.5798 H         1 UNK         0.0850 
    117 H117       30.5197    4.7334   -8.9356 H         1 UNK         0.0810 
    118 H118       28.9960    5.2743   -8.2490 H         1 UNK         0.0810 
    119 H119       29.0887    4.8164   -9.9496 H         1 UNK         0.0810 
    120 H120       28.7667    0.6045   -8.4864 H         1 UNK         0.3040 
    121 H121       30.0614   -0.0176  -11.1067 H         1 UNK         0.0766 
    122 H122       27.6774   -0.7643  -10.7896 H         1 UNK         0.0812 
    123 H123       28.1583   -1.6848   -9.3643 H         1 UNK         0.0812 
    124 H124       28.7686   -2.1313  -10.9494 H         1 UNK         0.0812 
    125 H125       31.5792   -1.6925  -11.1959 H         1 UNK         0.3205 
    126 H126       33.3729   -2.8588  -10.6856 H         1 UNK         0.0754 
    127 H127       33.4426   -4.3242   -8.7233 H         1 UNK         0.0769 
    128 H128       31.7984   -4.2829   -9.3180 H         1 UNK         0.0769 
    129 H129       32.2294   -3.3629   -7.8839 H         1 UNK         0.0769 
    130 H130       34.7570   -2.9945   -8.0361 H         1 UNK         0.2981 
    131 H131       36.4605   -2.0410   -7.0208 H         1 UNK         0.0541 
    132 H132       37.9305   -1.0416  -10.4125 H         1 UNK         0.3459 
    133 H133       36.5724   -2.0905  -10.0911 H         1 UNK         0.3459 
    134 H134       34.7835    0.5195   -7.1561 H         1 UNK         0.0612 
    135 H135       36.2815    0.4118   -6.2814 H         1 UNK         0.0612 
    136 H136       32.6262    0.1765   -6.0297 H         1 UNK         0.0624 
    137 H137       32.7201   -1.5191   -6.4541 H         1 UNK         0.0624 
@<TRIPOS>BOND
     1    1    2 1    
     2    1   72 1    
     3    1   73 1    
     4    1   74 1    
     5    2    3 2    
     6    2    4 am   BACKBONE|DICT|INTERRES
     7    4    5 1    
     8    4   75 1    
     9    5    6 1    
    10    5   35 1    
    11    5   76 1    
    12    6    7 1    
    13    6   77 1    
    14    6   78 1    
    15    7    8 1    
    16    8    9 1    
    17    8   79 1    
    18    8   80 1    
    19    9   10 ar   
    20    9   14 ar   
    21   10   11 ar   
    22   10   81 1    
    23   11   12 ar   
    24   11   71 1    
    25   12   13 ar   
    26   12   82 1    
    27   13   14 ar   
    28   13   15 1    
    29   14   83 1    
    30   15   16 1    
    31   15   84 1    
    32   15   85 1    
    33   16   17 1    
    34   17   18 1    
    35   17   86 1    
    36   17   87 1    
    37   18   19 1    
    38   18   37 1    
    39   18   88 1    
    40   19   20 am   BACKBONE|DICT|INTERRES
    41   19   89 1    
    42   20   21 2    
    43   20   22 1    
    44   22   23 1    
    45   22   24 1    
    46   22   90 1    
    47   23   91 1    
    48   23   92 1    
    49   23   93 1    
    50   24   25 am   BACKBONE|DICT|INTERRES
    51   24   94 1    
    52   25   26 2    
    53   25   27 1    
    54   27   28 1    
    55   27   29 1    
    56   27   95 1    
    57   28   96 1    
    58   28   97 1    
    59   28   98 1    
    60   29   30 am   BACKBONE|DICT|INTERRES
    61   29   99 1    
    62   30   31 2    
    63   30   32 1    
    64   32   33 1    
    65   32   34 1    
    66   32  100 1    
    67   33  101 1    
    68   33  102 1    
    69   33  103 1    
    70   34   35 am   BACKBONE|DICT|INTERRES
    71   34  104 1    
    72   35   36 2    
    73   37   38 2    
    74   37   39 am   BACKBONE|DICT|INTERRES
    75   39   40 1    
    76   39  105 1    
    77   40   41 1    
    78   40   42 1    
    79   40  106 1    
    80   41  107 1    
    81   41  108 1    
    82   41  109 1    
    83   42   43 2    
    84   42   44 am   BACKBONE|DICT|INTERRES
    85   44   45 1    
    86   44  110 1    
    87   45   46 1    
    88   45   47 1    
    89   45  111 1    
    90   46  112 1    
    91   46  113 1    
    92   46  114 1    
    93   47   48 2    
    94   47   49 am   BACKBONE|DICT|INTERRES
    95   49   50 1    
    96   49  115 1    
    97   50   51 1    
    98   50   52 1    
    99   50  116 1    
   100   51  117 1    
   101   51  118 1    
   102   51  119 1    
   103   52   53 2    
   104   52   54 am   BACKBONE|DICT|INTERRES
   105   54   55 1    
   106   54  120 1    
   107   55   56 1    
   108   55   57 1    
   109   55  121 1    
   110   56  122 1    
   111   56  123 1    
   112   56  124 1    
   113   57   58 2    
   114   57   59 am   BACKBONE|DICT|INTERRES
   115   59   60 1    
   116   59  125 1    
   117   60   61 1    
   118   60   62 1    
   119   60  126 1    
   120   61  127 1    
   121   61  128 1    
   122   61  129 1    
   123   62   63 2    
   124   62   64 am   BACKBONE|DICT|INTERRES
   125   64   65 1    
   126   64  130 1    
   127   65   66 1    
   128   65   69 1    
   129   65  131 1    
   130   66   67 am   BACKBONE|DICT|INTERRES
   131   66   68 2    
   132   67  132 1    
   133   67  133 1    
   134   69   70 1    
   135   69  134 1    
   136   69  135 1    
   137   70   71 1    
   138   71  136 1    
   139   71  137 1    
@<TRIPOS>SUBSTRUCTURE
     1 UNK         1 GROUP             0       ****    0 ROOT    
