@<TRIPOS>MOLECULE
3R137
137   139    1
SMALL
USER_CHARGES


@<TRIPOS>ATOM
      1 CA         25.8642   -1.3966   -1.0647 C.3       0 UNK        -0.2020 
      2 C          26.4815   -2.3295   -2.0940 C.2       0 UNK         0.4855 
      3 O          26.5705   -1.9772   -3.2702 O.2       0 UNK        -0.5197 
      4 N          26.8992   -3.5288   -1.6708 N.am      1 UNK        -0.4892 
      5 CA         27.4547   -4.5619   -2.5493 C.3       1 UNK         0.0835 
      6 C6         28.0219   -5.7761   -1.7712 C.3       12 UNK        -0.0855 
      7 S7         29.1845   -5.3402   -0.4359 S.3       12 UNK        -0.2931 
      8 C8         30.7266   -4.9989   -1.3531 C.3       12 UNK         0.0378 
      9 C9         30.9378   -3.5235   -1.6933 C.ar      12 UNK        -0.0802 
     10 C10        31.5621   -3.1722   -2.8962 C.ar      12 UNK        -0.0944 
     11 C11        31.8550   -1.8342   -3.1817 C.ar      12 UNK        -0.0787 
     12 C12        31.5137   -0.8425   -2.2595 C.ar      12 UNK        -0.0862 
     13 C13        30.8638   -1.1717   -1.0694 C.ar      12 UNK        -0.0733 
     14 C14        30.5871   -2.5127   -0.7882 C.ar      12 UNK        -0.0832 
     15 C15        30.4826   -0.0843   -0.0765 C.3       12 UNK         0.0240 
     16 S16        28.9355    0.7501   -0.5518 S.3       12 UNK        -0.2522 
     17 C17        29.5156    2.0247   -1.7259 C.3       12 UNK        -0.0967 
     18 CA         29.0449    1.7977   -3.1904 C.3       5 UNK         0.0660 
     19 N          27.5801    1.6932   -3.2649 N.am      5 UNK        -0.4015 
     20 C          26.8556    1.2191   -4.2867 C.2       4 UNK         0.4946 
     21 O          27.3203    0.8943   -5.3831 O.2       4 UNK        -0.5353 
     22 CA         25.3456    1.1066   -4.0599 C.3       4 UNK         0.0277 
     23 CB         24.6317    2.4281   -4.3922 C.3       4 UNK        -0.1981 
     24 N          24.8539    0.0443   -4.9288 N.am      4 UNK        -0.4209 
     25 C          23.8536   -0.7978   -4.6522 C.2       3 UNK         0.4942 
     26 O          23.1520   -0.7325   -3.6420 O.2       3 UNK        -0.5208 
     27 CA         23.6024   -1.9085   -5.6765 C.3       3 UNK         0.0250 
     28 CB         23.5334   -1.3593   -7.1183 C.3       3 UNK        -0.1990 
     29 N          24.6261   -2.9497   -5.5533 N.am      3 UNK        -0.4232 
     30 C          24.5173   -4.1770   -6.0858 C.2       2 UNK         0.4993 
     31 O          23.5252   -4.5584   -6.7089 O.2       2 UNK        -0.5286 
     32 CA         25.6929   -5.1610   -5.9242 C.3       2 UNK         0.0209 
     33 CB         26.4671   -5.3068   -7.2447 C.3       2 UNK        -0.1931 
     34 N          26.6274   -4.8086   -4.8529 N.am      2 UNK        -0.4546 
     35 C          26.3811   -5.0262   -3.5554 C.2       1 UNK         0.5154 
     36 O          25.3495   -5.5577   -3.1365 O.2       1 UNK        -0.5181 
     37 C          29.6149    2.8830   -4.1390 C.2       5 UNK         0.5014 
     38 O          30.2517    3.8334   -3.6783 O.2       5 UNK        -0.5248 
     39 N          29.3598    2.7440   -5.4414 N.am      6 UNK        -0.4434 
     40 CA         29.7316    3.6655   -6.5088 C.3       6 UNK         0.0363 
     41 CB         28.8111    4.9068   -6.4752 C.3       6 UNK        -0.1936 
     42 C          29.6720    2.9160   -7.8491 C.2       6 UNK         0.5081 
     43 O          29.6952    1.6816   -7.8730 O.2       6 UNK        -0.5248 
     44 N          29.5669    3.6673   -8.9539 N.am      7 UNK        -0.4718 
     45 CA         29.4574    3.1598  -10.3277 C.3       7 UNK         0.0273 
     46 CB         29.3912    4.3458  -11.3023 C.3       7 UNK        -0.1935 
     47 C          28.2731    2.2031  -10.5641 C.2       7 UNK         0.5018 
     48 O          28.3651    1.3510  -11.4467 O.2       7 UNK        -0.5186 
     49 N          27.2208    2.3123   -9.7391 N.am      8 UNK        -0.4240 
     50 CA         26.0663    1.4093   -9.6972 C.3       8 UNK         0.0235 
     51 CB         25.0810    1.9000   -8.6235 C.3       8 UNK        -0.2000 
     52 C          26.4387   -0.0641   -9.4442 C.2       8 UNK         0.4941 
     53 O          25.8106   -0.9464  -10.0291 O.2       8 UNK        -0.5273 
     54 N          27.4590   -0.2996   -8.6068 N.am      9 UNK        -0.4262 
     55 CA         28.0366   -1.6201   -8.3382 C.3       9 UNK         0.0264 
     56 CB         28.1222   -1.8282   -6.8162 C.3       9 UNK        -0.1955 
     57 C          29.4146   -1.7911   -9.0068 C.2       9 UNK         0.5031 
     58 O          30.1185   -2.7510   -8.6897 O.2       9 UNK        -0.5390 
     59 N          29.7758   -0.8697   -9.9145 N.am      10 UNK        -0.4204 
     60 CA         31.0489   -0.7703  -10.6367 C.3       10 UNK         0.0237 
     61 CB         31.2162   -1.9498  -11.6190 C.3       10 UNK        -0.1985 
     62 C          32.2705   -0.5742   -9.7146 C.2       10 UNK         0.4970 
     63 O          33.3590   -1.0531  -10.0389 O.2       10 UNK        -0.4914 
     64 N          32.0831    0.1368   -8.5937 N.am      11 UNK        -0.4285 
     65 CA         33.1436    0.4350   -7.6157 C.3       11 UNK         0.1007 
     66 C          34.1602    1.5203   -8.0766 C.2       11 UNK         0.5703 
     67 N          33.9021    2.2685   -9.1433 N.am      11 UNK        -0.7361 
     68 O          35.2082    1.6813   -7.4558 O.2       11 UNK        -0.4986 
     69 C69        32.5677    0.7863   -6.2199 C.3       12 UNK        -0.0947 
     70 S70        31.4551   -0.4977   -5.5579 S.3       12 UNK        -0.2240 
     71 C71        32.5636   -1.4441   -4.4688 C.3       12 UNK         0.0194 
     72 H72        26.0210   -1.7524   -0.0467 H         1 UNK         0.0906 
     73 H73        26.3027   -0.4040   -1.1466 H         1 UNK         0.0906 
     74 H74        24.7920   -1.3085   -1.2382 H         1 UNK         0.0906 
     75 H75        26.8071   -3.7862   -0.6987 H         1 UNK         0.3140 
     76 H76        28.2793   -4.1040   -3.1007 H         1 UNK         0.1085 
     77 H77        28.5138   -6.4711   -2.4545 H         1 UNK         0.0836 
     78 H78        27.2106   -6.3418   -1.3080 H         1 UNK         0.0836 
     79 H79        30.7590   -5.6132   -2.2542 H         1 UNK         0.0731 
     80 H80        31.5662   -5.3219   -0.7364 H         1 UNK         0.0731 
     81 H81        31.8456   -3.9427   -3.6003 H         1 UNK         0.1312 
     82 H82        31.7496    0.1890   -2.4787 H         1 UNK         0.1406 
     83 H83        30.1106   -2.7690    0.1479 H         1 UNK         0.1631 
     84 H84        31.2915    0.6407    0.0242 H         1 UNK         0.0717 
     85 H85        30.3468   -0.5175    0.9156 H         1 UNK         0.0717 
     86 H86        29.1552    2.9885   -1.3608 H         1 UNK         0.0934 
     87 H87        30.6039    2.0873   -1.6807 H         1 UNK         0.0934 
     88 H88        29.4529    0.8430   -3.5288 H         1 UNK         0.0739 
     89 H89        27.0957    1.9593   -2.4207 H         1 UNK         0.3093 
     90 H90        25.1654    0.8397   -3.0168 H         1 UNK         0.0818 
     91 H91        24.9803    3.2354   -3.7472 H         1 UNK         0.0819 
     92 H92        24.8085    2.7345   -5.4236 H         1 UNK         0.0819 
     93 H93        23.5544    2.3419   -4.2495 H         1 UNK         0.0819 
     94 H94        25.4457   -0.1218   -5.7331 H         1 UNK         0.3041 
     95 H95        22.6328   -2.3489   -5.4336 H         1 UNK         0.0784 
     96 H96        22.8736   -0.4928   -7.1795 H         1 UNK         0.0793 
     97 H97        24.5144   -1.0569   -7.4817 H         1 UNK         0.0793 
     98 H98        23.1441   -2.1047   -7.8115 H         1 UNK         0.0793 
     99 H99        25.4291   -2.7214   -4.9743 H         1 UNK         0.3024 
    100 H100       25.2543   -6.1344   -5.6906 H         1 UNK         0.1171 
    101 H101       26.9324   -4.3708   -7.5475 H         1 UNK         0.0786 
    102 H102       27.2497   -6.0617   -7.1658 H         1 UNK         0.0786 
    103 H103       25.8036   -5.6149   -8.0541 H         1 UNK         0.0786 
    104 H104       27.4834   -4.3466   -5.1234 H         1 UNK         0.2977 
    105 H105       28.8276    1.9256   -5.7390 H         1 UNK         0.3127 
    106 H106       30.7664    3.9782   -6.3574 H         1 UNK         0.0770 
    107 H107       27.7751    4.6444   -6.6938 H         1 UNK         0.0814 
    108 H108       29.1237    5.6627   -7.1960 H         1 UNK         0.0814 
    109 H109       28.8277    5.3895   -5.4980 H         1 UNK         0.0814 
    110 H110       29.5551    4.6717   -8.8474 H         1 UNK         0.2983 
    111 H111       30.3684    2.5960  -10.5379 H         1 UNK         0.0947 
    112 H112       29.3352    4.0000  -12.3357 H         1 UNK         0.0806 
    113 H113       30.2772    4.9761  -11.2230 H         1 UNK         0.0806 
    114 H114       28.5157    4.9704  -11.1202 H         1 UNK         0.0806 
    115 H115       27.2462    3.0457   -9.0465 H         1 UNK         0.3000 
    116 H116       25.5741    1.4629  -10.6705 H         1 UNK         0.0850 
    117 H117       25.5230    1.8668   -7.6268 H         1 UNK         0.0810 
    118 H118       24.1844    1.2793   -8.6047 H         1 UNK         0.0810 
    119 H119       24.7580    2.9233   -8.8155 H         1 UNK         0.0810 
    120 H120       27.9374    0.4845   -8.1738 H         1 UNK         0.3040 
    121 H121       27.3963   -2.4016   -8.7499 H         1 UNK         0.0766 
    122 H122       28.7478   -1.0696   -6.3484 H         1 UNK         0.0812 
    123 H123       27.1387   -1.7756   -6.3516 H         1 UNK         0.0812 
    124 H124       28.5517   -2.7982   -6.5661 H         1 UNK         0.0812 
    125 H125       29.1030   -0.1451  -10.1360 H         1 UNK         0.3205 
    126 H126       30.9819    0.1395  -11.2344 H         1 UNK         0.0754 
    127 H127       32.0847   -1.8047  -12.2627 H         1 UNK         0.0769 
    128 H128       30.3472   -2.0496  -12.2695 H         1 UNK         0.0769 
    129 H129       31.3544   -2.8964  -11.0956 H         1 UNK         0.0769 
    130 H130       31.1628    0.5072   -8.3742 H         1 UNK         0.2981 
    131 H131       33.7293   -0.4780   -7.4919 H         1 UNK         0.0541 
    132 H132       34.5730    2.9629   -9.4319 H         1 UNK         0.3459 
    133 H133       33.0499    2.1416   -9.6626 H         1 UNK         0.3459 
    134 H134       32.0024    1.7165   -6.2726 H         1 UNK         0.0612 
    135 H135       33.3691    0.9730   -5.5036 H         1 UNK         0.0612 
    136 H136       32.9173   -2.3247   -5.0068 H         1 UNK         0.0624 
    137 H137       33.4496   -0.8618   -4.2146 H         1 UNK         0.0624 
@<TRIPOS>BOND
     1    1    2 1    
     2    1   72 1    
     3    1   73 1    
     4    1   74 1    
     5    2    3 2    
     6    2    4 am   BACKBONE|DICT|INTERRES
     7    4    5 1    
     8    4   75 1    
     9    5    6 1    
    10    5   35 1    
    11    5   76 1    
    12    6    7 1    
    13    6   77 1    
    14    6   78 1    
    15    7    8 1    
    16    8    9 1    
    17    8   79 1    
    18    8   80 1    
    19    9   10 ar   
    20    9   14 ar   
    21   10   11 ar   
    22   10   81 1    
    23   11   12 ar   
    24   11   71 1    
    25   12   13 ar   
    26   12   82 1    
    27   13   14 ar   
    28   13   15 1    
    29   14   83 1    
    30   15   16 1    
    31   15   84 1    
    32   15   85 1    
    33   16   17 1    
    34   17   18 1    
    35   17   86 1    
    36   17   87 1    
    37   18   19 1    
    38   18   37 1    
    39   18   88 1    
    40   19   20 am   BACKBONE|DICT|INTERRES
    41   19   89 1    
    42   20   21 2    
    43   20   22 1    
    44   22   23 1    
    45   22   24 1    
    46   22   90 1    
    47   23   91 1    
    48   23   92 1    
    49   23   93 1    
    50   24   25 am   BACKBONE|DICT|INTERRES
    51   24   94 1    
    52   25   26 2    
    53   25   27 1    
    54   27   28 1    
    55   27   29 1    
    56   27   95 1    
    57   28   96 1    
    58   28   97 1    
    59   28   98 1    
    60   29   30 am   BACKBONE|DICT|INTERRES
    61   29   99 1    
    62   30   31 2    
    63   30   32 1    
    64   32   33 1    
    65   32   34 1    
    66   32  100 1    
    67   33  101 1    
    68   33  102 1    
    69   33  103 1    
    70   34   35 am   BACKBONE|DICT|INTERRES
    71   34  104 1    
    72   35   36 2    
    73   37   38 2    
    74   37   39 am   BACKBONE|DICT|INTERRES
    75   39   40 1    
    76   39  105 1    
    77   40   41 1    
    78   40   42 1    
    79   40  106 1    
    80   41  107 1    
    81   41  108 1    
    82   41  109 1    
    83   42   43 2    
    84   42   44 am   BACKBONE|DICT|INTERRES
    85   44   45 1    
    86   44  110 1    
    87   45   46 1    
    88   45   47 1    
    89   45  111 1    
    90   46  112 1    
    91   46  113 1    
    92   46  114 1    
    93   47   48 2    
    94   47   49 am   BACKBONE|DICT|INTERRES
    95   49   50 1    
    96   49  115 1    
    97   50   51 1    
    98   50   52 1    
    99   50  116 1    
   100   51  117 1    
   101   51  118 1    
   102   51  119 1    
   103   52   53 2    
   104   52   54 am   BACKBONE|DICT|INTERRES
   105   54   55 1    
   106   54  120 1    
   107   55   56 1    
   108   55   57 1    
   109   55  121 1    
   110   56  122 1    
   111   56  123 1    
   112   56  124 1    
   113   57   58 2    
   114   57   59 am   BACKBONE|DICT|INTERRES
   115   59   60 1    
   116   59  125 1    
   117   60   61 1    
   118   60   62 1    
   119   60  126 1    
   120   61  127 1    
   121   61  128 1    
   122   61  129 1    
   123   62   63 2    
   124   62   64 am   BACKBONE|DICT|INTERRES
   125   64   65 1    
   126   64  130 1    
   127   65   66 1    
   128   65   69 1    
   129   65  131 1    
   130   66   67 am   BACKBONE|DICT|INTERRES
   131   66   68 2    
   132   67  132 1    
   133   67  133 1    
   134   69   70 1    
   135   69  134 1    
   136   69  135 1    
   137   70   71 1    
   138   71  136 1    
   139   71  137 1    
@<TRIPOS>SUBSTRUCTURE
     1 UNK         1 GROUP             0       ****    0 ROOT    
