@<TRIPOS>MOLECULE
3R137
137   139    1
SMALL
USER_CHARGES


@<TRIPOS>ATOM
      1 CA         27.4164   -2.7235    3.5840 C.3       0 UNK        -0.2020 
      2 C          27.1068   -2.6317    2.0976 C.2       0 UNK         0.4855 
      3 O          26.0531   -3.1002    1.6645 O.2       0 UNK        -0.5197 
      4 N          28.0133   -2.0262    1.3164 N.am      1 UNK        -0.4892 
      5 CA         27.9393   -1.7997   -0.1352 C.3       1 UNK         0.0835 
      6 C6         27.7497   -3.1079   -0.9496 C.3       12 UNK        -0.0855 
      7 S7         28.2928   -2.9417   -2.6791 S.3       12 UNK        -0.2931 
      8 C8         29.8579   -3.8668   -2.6684 C.3       12 UNK         0.0378 
      9 C9         30.4620   -3.9520   -4.0633 C.ar      12 UNK        -0.0802 
     10 C10        31.6425   -3.2688   -4.3736 C.ar      12 UNK        -0.0944 
     11 C11        32.2211   -3.3939   -5.6410 C.ar      12 UNK        -0.0787 
     12 C12        31.5932   -4.1828   -6.6111 C.ar      12 UNK        -0.0862 
     13 C13        30.4107   -4.8677   -6.3145 C.ar      12 UNK        -0.0733 
     14 C14        29.8563   -4.7534   -5.0358 C.ar      12 UNK        -0.0832 
     15 C15        29.7667   -5.7773   -7.3547 C.3       12 UNK         0.0240 
     16 S16        28.7545   -4.8682   -8.5668 S.3       12 UNK        -0.2522 
     17 C17        27.3121   -4.3784   -7.5584 C.3       12 UNK        -0.0967 
     18 CA         26.6820   -3.0254   -7.9881 C.3       5 UNK         0.0660 
     19 N          25.3982   -2.7314   -7.3375 N.am      5 UNK        -0.4015 
     20 C          25.1647   -2.6474   -6.0211 C.2       4 UNK         0.4946 
     21 O          25.9904   -2.9355   -5.1547 O.2       4 UNK        -0.5353 
     22 CA         23.8037   -2.0758   -5.5924 C.3       4 UNK         0.0277 
     23 CB         22.9706   -3.1372   -4.8561 C.3       4 UNK        -0.1981 
     24 N          23.9747   -0.9065   -4.7248 N.am      4 UNK        -0.4209 
     25 C          24.6572    0.2029   -5.0360 C.2       3 UNK         0.4942 
     26 O          25.1770    0.3899   -6.1363 O.2       3 UNK        -0.5208 
     27 CA         24.8019    1.2982   -3.9639 C.3       3 UNK         0.0250 
     28 CB         23.6619    2.3277   -4.0836 C.3       3 UNK        -0.1990 
     29 N          24.9558    0.8346   -2.5754 N.am      3 UNK        -0.4232 
     30 C          24.0870    0.1874   -1.7872 C.2       2 UNK         0.4993 
     31 O          23.0000   -0.2454   -2.1754 O.2       2 UNK        -0.5286 
     32 CA         24.5136   -0.0072   -0.3179 C.3       2 UNK         0.0209 
     33 CB         23.3543   -0.4971    0.5702 C.3       2 UNK        -0.1931 
     34 N          25.6401   -0.9294   -0.1589 N.am      2 UNK        -0.4546 
     35 C          26.9145   -0.7030   -0.5006 C.2       1 UNK         0.5154 
     36 O          27.2980    0.3397   -1.0352 O.2       1 UNK        -0.5181 
     37 C          27.6632   -1.8378   -7.8788 C.2       5 UNK         0.5014 
     38 O          28.1083   -1.3413   -8.9142 O.2       5 UNK        -0.5248 
     39 N          27.9627   -1.3859   -6.6527 N.am      6 UNK        -0.4434 
     40 CA         28.9471   -0.3454   -6.3385 C.3       6 UNK         0.0363 
     41 CB         28.9749   -0.0843   -4.8255 C.3       6 UNK        -0.1936 
     42 C          28.7820    0.9788   -7.1001 C.2       6 UNK         0.5081 
     43 O          29.7911    1.5605   -7.4953 O.2       6 UNK        -0.5248 
     44 N          27.5396    1.4298   -7.3169 N.am      7 UNK        -0.4718 
     45 CA         27.2390    2.6521   -8.0692 C.3       7 UNK         0.0273 
     46 CB         25.7810    3.0670   -7.8169 C.3       7 UNK        -0.1935 
     47 C          27.5095    2.5232   -9.5790 C.2       7 UNK         0.5018 
     48 O          27.8295    3.5270  -10.2160 O.2       7 UNK        -0.5186 
     49 N          27.3864    1.3043  -10.1224 N.am      8 UNK        -0.4240 
     50 CA         27.6797    0.9905  -11.5224 C.3       8 UNK         0.0235 
     51 CB         26.8178   -0.1990  -11.9776 C.3       8 UNK        -0.2000 
     52 C          29.1726    0.6919  -11.7227 C.2       8 UNK         0.4941 
     53 O          29.7580    1.1497  -12.7042 O.2       8 UNK        -0.5273 
     54 N          29.7626   -0.0552  -10.7798 N.am      9 UNK        -0.4262 
     55 CA         31.1792   -0.4258  -10.7542 C.3       9 UNK         0.0264 
     56 CB         31.3537   -1.6148   -9.7954 C.3       9 UNK        -0.1955 
     57 C          32.1225    0.7328  -10.3717 C.2       9 UNK         0.5031 
     58 O          33.3269    0.6153  -10.6023 O.2       9 UNK        -0.5390 
     59 N          31.5667    1.8141   -9.8033 N.am      10 UNK        -0.4204 
     60 CA         32.2395    3.0097   -9.2803 C.3       10 UNK         0.0237 
     61 CB         32.9913    3.7718  -10.3932 C.3       10 UNK        -0.1985 
     62 C          33.1120    2.6943   -8.0500 C.2       10 UNK         0.4970 
     63 O          34.2323    3.1960   -7.9363 O.2       10 UNK        -0.4914 
     64 N          32.5666    1.8688   -7.1501 N.am      11 UNK        -0.4285 
     65 CA         33.1922    1.4509   -5.8858 C.3       11 UNK         0.1007 
     66 C          32.8626    2.3923   -4.6926 C.2       11 UNK         0.5703 
     67 N          31.9556    3.3532   -4.8307 N.am      11 UNK        -0.7361 
     68 O          33.4523    2.2570   -3.6233 O.2       11 UNK        -0.4986 
     69 C69        32.8568   -0.0240   -5.5402 C.3       12 UNK        -0.0947 
     70 S70        33.3629   -1.1734   -6.8608 S.3       12 UNK        -0.2240 
     71 C71        33.5569   -2.7311   -5.9473 C.3       12 UNK         0.0194 
     72 H72        26.6466   -2.2099    4.1593 H         1 UNK         0.0906 
     73 H73        27.4372   -3.7667    3.8982 H         1 UNK         0.0906 
     74 H74        28.3792   -2.2762    3.8302 H         1 UNK         0.0906 
     75 H75        28.8400   -1.6420    1.7547 H         1 UNK         0.3140 
     76 H76        28.9186   -1.3952   -0.3983 H         1 UNK         0.1085 
     77 H77        28.3121   -3.9192   -0.4851 H         1 UNK         0.0836 
     78 H78        26.7085   -3.4352   -0.9432 H         1 UNK         0.0836 
     79 H79        30.5512   -3.3908   -1.9731 H         1 UNK         0.0731 
     80 H80        29.6824   -4.8759   -2.2927 H         1 UNK         0.0731 
     81 H81        32.1268   -2.6613   -3.6214 H         1 UNK         0.1312 
     82 H82        32.0380   -4.2817   -7.5921 H         1 UNK         0.1406 
     83 H83        28.9514   -5.2920   -4.7884 H         1 UNK         0.1631 
     84 H84        29.1522   -6.5393   -6.8725 H         1 UNK         0.0717 
     85 H85        30.5477   -6.3177   -7.8916 H         1 UNK         0.0717 
     86 H86        26.5679   -5.1722   -7.6365 H         1 UNK         0.0934 
     87 H87        27.6006   -4.3455   -6.5097 H         1 UNK         0.0934 
     88 H88        26.4379   -3.1161   -9.0481 H         1 UNK         0.0739 
     89 H89        24.6628   -2.4401   -7.9662 H         1 UNK         0.3093 
     90 H90        23.2525   -1.7525   -6.4776 H         1 UNK         0.0818 
     91 H91        21.9881   -2.7519   -4.5824 H         1 UNK         0.0819 
     92 H92        22.8123   -4.0150   -5.4839 H         1 UNK         0.0819 
     93 H93        23.4648   -3.4731   -3.9432 H         1 UNK         0.0819 
     94 H94        23.5605   -0.9456   -3.7967 H         1 UNK         0.3041 
     95 H95        25.7328    1.8192   -4.1942 H         1 UNK         0.0784 
     96 H96        23.6073    2.7330   -5.0949 H         1 UNK         0.0793 
     97 H97        22.6899    1.8870   -3.8596 H         1 UNK         0.0793 
     98 H98        23.8138    3.1680   -3.4062 H         1 UNK         0.0793 
     99 H99        25.8659    1.0197   -2.1603 H         1 UNK         0.3024 
    100 H100       24.8218    0.9724    0.0550 H         1 UNK         0.1171 
    101 H101       23.0131   -1.4907    0.2766 H         1 UNK         0.0786 
    102 H102       22.4981    0.1758    0.5039 H         1 UNK         0.0786 
    103 H103       23.6492   -0.5414    1.6189 H         1 UNK         0.0786 
    104 H104       25.4520   -1.8016    0.3276 H         1 UNK         0.2977 
    105 H105       27.5078   -1.8448   -5.8678 H         1 UNK         0.3127 
    106 H106       29.9185   -0.7496   -6.6283 H         1 UNK         0.0770 
    107 H107       29.4279   -0.9229   -4.3001 H         1 UNK         0.0814 
    108 H108       27.9750    0.0740   -4.4196 H         1 UNK         0.0814 
    109 H109       29.5711    0.7964   -4.5813 H         1 UNK         0.0814 
    110 H110       26.7457    0.9125   -6.9410 H         1 UNK         0.2983 
    111 H111       27.8859    3.4473   -7.6917 H         1 UNK         0.0947 
    112 H112       25.5410    3.9933   -8.3407 H         1 UNK         0.0806 
    113 H113       25.5963    3.2372   -6.7563 H         1 UNK         0.0806 
    114 H114       25.0800    2.3054   -8.1609 H         1 UNK         0.0806 
    115 H115       27.1936    0.5211   -9.5097 H         1 UNK         0.3000 
    116 H116       27.4221    1.8499  -12.1457 H         1 UNK         0.0850 
    117 H117       27.0046   -0.4350  -13.0261 H         1 UNK         0.0810 
    118 H118       25.7550    0.0229  -11.8804 H         1 UNK         0.0810 
    119 H119       27.0259   -1.1001  -11.3996 H         1 UNK         0.0810 
    120 H120       29.1811   -0.4443  -10.0375 H         1 UNK         0.3040 
    121 H121       31.4623   -0.7534  -11.7567 H         1 UNK         0.0766 
    122 H122       32.3946   -1.9380   -9.7536 H         1 UNK         0.0812 
    123 H123       30.7598   -2.4726  -10.1121 H         1 UNK         0.0812 
    124 H124       31.0481   -1.3590   -8.7805 H         1 UNK         0.0812 
    125 H125       30.5793    1.7552   -9.5881 H         1 UNK         0.3205 
    126 H126       31.4436    3.6641   -8.9215 H         1 UNK         0.0754 
    127 H127       33.3619    4.7297  -10.0265 H         1 UNK         0.0769 
    128 H128       32.3384    3.9800  -11.2408 H         1 UNK         0.0769 
    129 H129       33.8517    3.2124  -10.7614 H         1 UNK         0.0769 
    130 H130       31.6081    1.5623   -7.3000 H         1 UNK         0.2981 
    131 H131       34.2754    1.5079   -6.0082 H         1 UNK         0.0541 
    132 H132       31.4637    3.4697   -5.7018 H         1 UNK         0.3459 
    133 H133       31.7580    3.9608   -4.0516 H         1 UNK         0.3459 
    134 H134       31.7902   -0.1488   -5.3594 H         1 UNK         0.0612 
    135 H135       33.3604   -0.3181   -4.6176 H         1 UNK         0.0612 
    136 H136       34.1641   -3.4088   -6.5491 H         1 UNK         0.0624 
    137 H137       34.1232   -2.5553   -5.0315 H         1 UNK         0.0624 
@<TRIPOS>BOND
     1    1    2 1    
     2    1   72 1    
     3    1   73 1    
     4    1   74 1    
     5    2    3 2    
     6    2    4 am   BACKBONE|DICT|INTERRES
     7    4    5 1    
     8    4   75 1    
     9    5    6 1    
    10    5   35 1    
    11    5   76 1    
    12    6    7 1    
    13    6   77 1    
    14    6   78 1    
    15    7    8 1    
    16    8    9 1    
    17    8   79 1    
    18    8   80 1    
    19    9   10 ar   
    20    9   14 ar   
    21   10   11 ar   
    22   10   81 1    
    23   11   12 ar   
    24   11   71 1    
    25   12   13 ar   
    26   12   82 1    
    27   13   14 ar   
    28   13   15 1    
    29   14   83 1    
    30   15   16 1    
    31   15   84 1    
    32   15   85 1    
    33   16   17 1    
    34   17   18 1    
    35   17   86 1    
    36   17   87 1    
    37   18   19 1    
    38   18   37 1    
    39   18   88 1    
    40   19   20 am   BACKBONE|DICT|INTERRES
    41   19   89 1    
    42   20   21 2    
    43   20   22 1    
    44   22   23 1    
    45   22   24 1    
    46   22   90 1    
    47   23   91 1    
    48   23   92 1    
    49   23   93 1    
    50   24   25 am   BACKBONE|DICT|INTERRES
    51   24   94 1    
    52   25   26 2    
    53   25   27 1    
    54   27   28 1    
    55   27   29 1    
    56   27   95 1    
    57   28   96 1    
    58   28   97 1    
    59   28   98 1    
    60   29   30 am   BACKBONE|DICT|INTERRES
    61   29   99 1    
    62   30   31 2    
    63   30   32 1    
    64   32   33 1    
    65   32   34 1    
    66   32  100 1    
    67   33  101 1    
    68   33  102 1    
    69   33  103 1    
    70   34   35 am   BACKBONE|DICT|INTERRES
    71   34  104 1    
    72   35   36 2    
    73   37   38 2    
    74   37   39 am   BACKBONE|DICT|INTERRES
    75   39   40 1    
    76   39  105 1    
    77   40   41 1    
    78   40   42 1    
    79   40  106 1    
    80   41  107 1    
    81   41  108 1    
    82   41  109 1    
    83   42   43 2    
    84   42   44 am   BACKBONE|DICT|INTERRES
    85   44   45 1    
    86   44  110 1    
    87   45   46 1    
    88   45   47 1    
    89   45  111 1    
    90   46  112 1    
    91   46  113 1    
    92   46  114 1    
    93   47   48 2    
    94   47   49 am   BACKBONE|DICT|INTERRES
    95   49   50 1    
    96   49  115 1    
    97   50   51 1    
    98   50   52 1    
    99   50  116 1    
   100   51  117 1    
   101   51  118 1    
   102   51  119 1    
   103   52   53 2    
   104   52   54 am   BACKBONE|DICT|INTERRES
   105   54   55 1    
   106   54  120 1    
   107   55   56 1    
   108   55   57 1    
   109   55  121 1    
   110   56  122 1    
   111   56  123 1    
   112   56  124 1    
   113   57   58 2    
   114   57   59 am   BACKBONE|DICT|INTERRES
   115   59   60 1    
   116   59  125 1    
   117   60   61 1    
   118   60   62 1    
   119   60  126 1    
   120   61  127 1    
   121   61  128 1    
   122   61  129 1    
   123   62   63 2    
   124   62   64 am   BACKBONE|DICT|INTERRES
   125   64   65 1    
   126   64  130 1    
   127   65   66 1    
   128   65   69 1    
   129   65  131 1    
   130   66   67 am   BACKBONE|DICT|INTERRES
   131   66   68 2    
   132   67  132 1    
   133   67  133 1    
   134   69   70 1    
   135   69  134 1    
   136   69  135 1    
   137   70   71 1    
   138   71  136 1    
   139   71  137 1    
@<TRIPOS>SUBSTRUCTURE
     1 UNK         1 GROUP             0       ****    0 ROOT    
