@<TRIPOS>MOLECULE
3R137
137   139    1
SMALL
USER_CHARGES


@<TRIPOS>ATOM
      1 CA         26.1408   -4.2447    2.1647 C.3       0 UNK        -0.2020 
      2 C          27.3681   -4.4731    1.2862 C.2       0 UNK         0.4855 
      3 O          27.9147   -5.5738    1.2915 O.2       0 UNK        -0.5197 
      4 N          27.8516   -3.4817    0.5235 N.am      1 UNK        -0.4892 
      5 CA         27.3127   -2.1238    0.3591 C.3       1 UNK         0.0835 
      6 C6         28.2795   -1.2045   -0.4292 C.3       12 UNK        -0.0855 
      7 S7         29.9123   -0.9931    0.3628 S.3       12 UNK        -0.2931 
      8 C8         30.9229   -2.3334   -0.3559 C.3       12 UNK         0.0378 
      9 C9         30.9343   -2.3248   -1.8786 C.ar      12 UNK        -0.0802 
     10 C10        31.7109   -1.3923   -2.5713 C.ar      12 UNK        -0.0944 
     11 C11        31.7481   -1.4008   -3.9687 C.ar      12 UNK        -0.0787 
     12 C12        30.9911   -2.3404   -4.6753 C.ar      12 UNK        -0.0862 
     13 C13        30.2099   -3.2774   -3.9934 C.ar      12 UNK        -0.0733 
     14 C14        30.1895   -3.2673   -2.5959 C.ar      12 UNK        -0.0832 
     15 C15        29.4101   -4.3231   -4.7556 C.3       12 UNK         0.0240 
     16 S16        27.8101   -3.6672   -5.3211 S.3       12 UNK        -0.2522 
     17 C17        28.1815   -3.2244   -7.0534 C.3       12 UNK        -0.0967 
     18 CA         27.4672   -1.9478   -7.5592 C.3       5 UNK         0.0660 
     19 N          26.0187   -1.9838   -7.3282 N.am      5 UNK        -0.4015 
     20 C          25.1337   -1.2098   -7.9699 C.2       4 UNK         0.4946 
     21 O          25.4456   -0.3601   -8.8036 O.2       4 UNK        -0.5353 
     22 CA         23.6533   -1.3976   -7.6034 C.3       4 UNK         0.0277 
     23 CB         23.1404   -2.7775   -8.0490 C.3       4 UNK        -0.1981 
     24 N          23.3757   -1.1996   -6.1787 N.am      4 UNK        -0.4209 
     25 C          23.5946   -0.0592   -5.5082 C.2       3 UNK         0.4942 
     26 O          24.1177    0.9382   -5.9986 O.2       3 UNK        -0.5208 
     27 CA         23.1666   -0.0162   -4.0342 C.3       3 UNK         0.0250 
     28 CB         21.6958    0.4145   -3.9147 C.3       3 UNK        -0.1990 
     29 N          23.3715   -1.2723   -3.3096 N.am      3 UNK        -0.4232 
     30 C          24.5650   -1.8471   -3.1145 C.2       2 UNK         0.4993 
     31 O          25.6148   -1.4501   -3.6272 O.2       2 UNK        -0.5286 
     32 CA         24.5857   -3.0733   -2.1867 C.3       2 UNK         0.0209 
     33 CB         24.6024   -4.3764   -3.0014 C.3       2 UNK        -0.1931 
     34 N          25.7518   -3.0348   -1.3039 N.am      2 UNK        -0.4546 
     35 C          25.9394   -2.1212   -0.3398 C.2       1 UNK         0.5154 
     36 O          25.0839   -1.3068    0.0096 O.2       1 UNK        -0.5181 
     37 C          28.1270   -0.6511   -7.0483 C.2       5 UNK         0.5014 
     38 O          29.1209   -0.2129   -7.6358 O.2       5 UNK        -0.5248 
     39 N          27.5481   -0.0430   -6.0022 N.am      6 UNK        -0.4434 
     40 CA         27.9349    1.2718   -5.4963 C.3       6 UNK         0.0363 
     41 CB         27.2873    1.5120   -4.1233 C.3       6 UNK        -0.1936 
     42 C          27.5838    2.3953   -6.4875 C.2       6 UNK         0.5081 
     43 O          28.4560    3.2003   -6.8119 O.2       6 UNK        -0.5248 
     44 N          26.3346    2.4182   -6.9782 N.am      7 UNK        -0.4718 
     45 CA         25.8384    3.4016   -7.9489 C.3       7 UNK         0.0273 
     46 CB         24.3098    3.2989   -8.0680 C.3       7 UNK        -0.1935 
     47 C          26.4914    3.2690   -9.3328 C.2       7 UNK         0.5018 
     48 O          26.7745    4.2879   -9.9640 O.2       7 UNK        -0.5186 
     49 N          26.7478    2.0266   -9.7675 N.am      8 UNK        -0.4240 
     50 CA         27.4921    1.7157  -10.9919 C.3       8 UNK         0.0235 
     51 CB         27.2969    0.2319  -11.3436 C.3       8 UNK        -0.2000 
     52 C          28.9942    2.0424  -10.8975 C.2       8 UNK         0.4941 
     53 O          29.6477    2.1106  -11.9392 O.2       8 UNK        -0.5273 
     54 N          29.5070    2.2229   -9.6692 N.am      9 UNK        -0.4262 
     55 CA         30.9045    2.4707   -9.3068 C.3       9 UNK         0.0264 
     56 CB         31.3670    3.8564   -9.8048 C.3       9 UNK        -0.1955 
     57 C          31.8170    1.3209   -9.7654 C.2       9 UNK         0.5031 
     58 O          32.7742    1.5445  -10.5091 O.2       9 UNK        -0.5390 
     59 N          31.4817    0.0986   -9.3259 N.am      10 UNK        -0.4204 
     60 CA         32.1988   -1.1340   -9.6738 C.3       10 UNK         0.0237 
     61 CB         31.3901   -2.3432   -9.1798 C.3       10 UNK        -0.1985 
     62 C          33.6409   -1.1954   -9.1333 C.2       10 UNK         0.4970 
     63 O          34.4747   -1.8852   -9.7213 O.2       10 UNK        -0.4914 
     64 N          33.9028   -0.4855   -8.0301 N.am      11 UNK        -0.4285 
     65 CA         35.2260   -0.3336   -7.4153 C.3       11 UNK         0.1007 
     66 C          36.1214    0.6254   -8.2423 C.2       11 UNK         0.5703 
     67 N          37.3380    0.2158   -8.5752 N.am      11 UNK        -0.7361 
     68 O          35.7366    1.7535   -8.5430 O.2       11 UNK        -0.4986 
     69 C69        35.1064    0.1494   -5.9477 C.3       12 UNK        -0.0947 
     70 S70        34.3105   -1.0995   -4.8879 S.3       12 UNK        -0.2240 
     71 C71        32.6340   -0.4184   -4.7138 C.3       12 UNK         0.0194 
     72 H72        25.2292   -4.2922    1.5698 H         1 UNK         0.0906 
     73 H73        26.1790   -3.2842    2.6762 H         1 UNK         0.0906 
     74 H74        26.0767   -5.0167    2.9312 H         1 UNK         0.0906 
     75 H75        28.6881   -3.6675   -0.0062 H         1 UNK         0.3140 
     76 H76        27.1780   -1.6878    1.3508 H         1 UNK         0.1085 
     77 H77        27.8487   -0.2043   -0.5124 H         1 UNK         0.0836 
     78 H78        28.3972   -1.5455   -1.4583 H         1 UNK         0.0836 
     79 H79        31.9459   -2.2252    0.0077 H         1 UNK         0.0731 
     80 H80        30.5793   -3.2960    0.0232 H         1 UNK         0.0731 
     81 H81        32.2992   -0.6701   -2.0215 H         1 UNK         0.1312 
     82 H82        31.0238   -2.3511   -5.7547 H         1 UNK         0.1406 
     83 H83        29.5951   -4.0006   -2.0695 H         1 UNK         0.1631 
     84 H84        29.2183   -5.1852   -4.1150 H         1 UNK         0.0717 
     85 H85        29.9890   -4.7049   -5.5977 H         1 UNK         0.0717 
     86 H86        29.2585   -3.1350   -7.1943 H         1 UNK         0.0934 
     87 H87        27.8819   -4.0707   -7.6737 H         1 UNK         0.0934 
     88 H88        27.6061   -1.9323   -8.6424 H         1 UNK         0.0739 
     89 H89        25.6961   -2.6296   -6.6219 H         1 UNK         0.3093 
     90 H90        23.0895   -0.6390   -8.1509 H         1 UNK         0.0818 
     91 H91        22.0616   -2.8600   -7.9153 H         1 UNK         0.0819 
     92 H92        23.3457   -2.9467   -9.1072 H         1 UNK         0.0819 
     93 H93        23.6091   -3.5896   -7.4920 H         1 UNK         0.0819 
     94 H94        22.9482   -1.9678   -5.6828 H         1 UNK         0.3041 
     95 H95        23.7805    0.7428   -3.5442 H         1 UNK         0.0784 
     96 H96        21.5235    1.3600   -4.4314 H         1 UNK         0.0793 
     97 H97        21.0204   -0.3227   -4.3508 H         1 UNK         0.0793 
     98 H98        21.4077    0.5610   -2.8735 H         1 UNK         0.0793 
     99 H99        22.5584   -1.6693   -2.8604 H         1 UNK         0.3024 
    100 H100       23.6897   -3.0633   -1.5617 H         1 UNK         0.1171 
    101 H101       23.7337   -4.4394   -3.6580 H         1 UNK         0.0786 
    102 H102       24.5799   -5.2510   -2.3509 H         1 UNK         0.0786 
    103 H103       25.4907   -4.4492   -3.6289 H         1 UNK         0.0786 
    104 H104       26.5163   -3.6517   -1.5347 H         1 UNK         0.2977 
    105 H105       26.7616   -0.4929   -5.5503 H         1 UNK         0.3127 
    106 H106       29.0189    1.2725   -5.3608 H         1 UNK         0.0770 
    107 H107       26.1986    1.4970   -4.1795 H         1 UNK         0.0814 
    108 H108       27.5815    2.4804   -3.7172 H         1 UNK         0.0814 
    109 H109       27.5928    0.7508   -3.4047 H         1 UNK         0.0814 
    110 H110       25.6543    1.7355   -6.6469 H         1 UNK         0.2983 
    111 H111       26.0823    4.3954   -7.5670 H         1 UNK         0.0947 
    112 H112       23.9209    4.0341   -8.7738 H         1 UNK         0.0806 
    113 H113       23.8248    3.4822   -7.1091 H         1 UNK         0.0806 
    114 H114       23.9994    2.3129   -8.4169 H         1 UNK         0.0806 
    115 H115       26.4031    1.2348   -9.2278 H         1 UNK         0.3000 
    116 H116       27.0774    2.3177  -11.8032 H         1 UNK         0.0850 
    117 H117       27.8006   -0.0195  -12.2779 H         1 UNK         0.0810 
    118 H118       26.2418   -0.0116  -11.4693 H         1 UNK         0.0810 
    119 H119       27.7024   -0.4197  -10.5690 H         1 UNK         0.0810 
    120 H120       28.8740    2.1379   -8.8841 H         1 UNK         0.3040 
    121 H121       30.9419    2.4831   -8.2162 H         1 UNK         0.0766 
    122 H122       31.3784    3.9160  -10.8935 H         1 UNK         0.0812 
    123 H123       30.7156    4.6470   -9.4323 H         1 UNK         0.0812 
    124 H124       32.3773    4.0764   -9.4575 H         1 UNK         0.0812 
    125 H125       30.6564    0.0027   -8.7349 H         1 UNK         0.3205 
    126 H126       32.2573   -1.1843  -10.7632 H         1 UNK         0.0754 
    127 H127       31.8611   -3.2793   -9.4830 H         1 UNK         0.0769 
    128 H128       30.3790   -2.3410   -9.5880 H         1 UNK         0.0769 
    129 H129       31.3163   -2.3524   -8.0930 H         1 UNK         0.0769 
    130 H130       33.1660    0.0804   -7.6417 H         1 UNK         0.2981 
    131 H131       35.7017   -1.3168   -7.4045 H         1 UNK         0.0541 
    132 H132       37.6650   -0.7046   -8.3250 H         1 UNK         0.3459 
    133 H133       37.9373    0.8352   -9.0980 H         1 UNK         0.3459 
    134 H134       34.5639    1.0947   -5.8858 H         1 UNK         0.0612 
    135 H135       36.0966    0.3391   -5.5290 H         1 UNK         0.0612 
    136 H136       32.6788    0.5321   -4.1800 H         1 UNK         0.0624 
    137 H137       32.2129   -0.2065   -5.6974 H         1 UNK         0.0624 
@<TRIPOS>BOND
     1    1    2 1    
     2    1   72 1    
     3    1   73 1    
     4    1   74 1    
     5    2    3 2    
     6    2    4 am   BACKBONE|DICT|INTERRES
     7    4    5 1    
     8    4   75 1    
     9    5    6 1    
    10    5   35 1    
    11    5   76 1    
    12    6    7 1    
    13    6   77 1    
    14    6   78 1    
    15    7    8 1    
    16    8    9 1    
    17    8   79 1    
    18    8   80 1    
    19    9   10 ar   
    20    9   14 ar   
    21   10   11 ar   
    22   10   81 1    
    23   11   12 ar   
    24   11   71 1    
    25   12   13 ar   
    26   12   82 1    
    27   13   14 ar   
    28   13   15 1    
    29   14   83 1    
    30   15   16 1    
    31   15   84 1    
    32   15   85 1    
    33   16   17 1    
    34   17   18 1    
    35   17   86 1    
    36   17   87 1    
    37   18   19 1    
    38   18   37 1    
    39   18   88 1    
    40   19   20 am   BACKBONE|DICT|INTERRES
    41   19   89 1    
    42   20   21 2    
    43   20   22 1    
    44   22   23 1    
    45   22   24 1    
    46   22   90 1    
    47   23   91 1    
    48   23   92 1    
    49   23   93 1    
    50   24   25 am   BACKBONE|DICT|INTERRES
    51   24   94 1    
    52   25   26 2    
    53   25   27 1    
    54   27   28 1    
    55   27   29 1    
    56   27   95 1    
    57   28   96 1    
    58   28   97 1    
    59   28   98 1    
    60   29   30 am   BACKBONE|DICT|INTERRES
    61   29   99 1    
    62   30   31 2    
    63   30   32 1    
    64   32   33 1    
    65   32   34 1    
    66   32  100 1    
    67   33  101 1    
    68   33  102 1    
    69   33  103 1    
    70   34   35 am   BACKBONE|DICT|INTERRES
    71   34  104 1    
    72   35   36 2    
    73   37   38 2    
    74   37   39 am   BACKBONE|DICT|INTERRES
    75   39   40 1    
    76   39  105 1    
    77   40   41 1    
    78   40   42 1    
    79   40  106 1    
    80   41  107 1    
    81   41  108 1    
    82   41  109 1    
    83   42   43 2    
    84   42   44 am   BACKBONE|DICT|INTERRES
    85   44   45 1    
    86   44  110 1    
    87   45   46 1    
    88   45   47 1    
    89   45  111 1    
    90   46  112 1    
    91   46  113 1    
    92   46  114 1    
    93   47   48 2    
    94   47   49 am   BACKBONE|DICT|INTERRES
    95   49   50 1    
    96   49  115 1    
    97   50   51 1    
    98   50   52 1    
    99   50  116 1    
   100   51  117 1    
   101   51  118 1    
   102   51  119 1    
   103   52   53 2    
   104   52   54 am   BACKBONE|DICT|INTERRES
   105   54   55 1    
   106   54  120 1    
   107   55   56 1    
   108   55   57 1    
   109   55  121 1    
   110   56  122 1    
   111   56  123 1    
   112   56  124 1    
   113   57   58 2    
   114   57   59 am   BACKBONE|DICT|INTERRES
   115   59   60 1    
   116   59  125 1    
   117   60   61 1    
   118   60   62 1    
   119   60  126 1    
   120   61  127 1    
   121   61  128 1    
   122   61  129 1    
   123   62   63 2    
   124   62   64 am   BACKBONE|DICT|INTERRES
   125   64   65 1    
   126   64  130 1    
   127   65   66 1    
   128   65   69 1    
   129   65  131 1    
   130   66   67 am   BACKBONE|DICT|INTERRES
   131   66   68 2    
   132   67  132 1    
   133   67  133 1    
   134   69   70 1    
   135   69  134 1    
   136   69  135 1    
   137   70   71 1    
   138   71  136 1    
   139   71  137 1    
@<TRIPOS>SUBSTRUCTURE
     1 UNK         1 GROUP             0       ****    0 ROOT    
