@<TRIPOS>MOLECULE
3R137
137   139    1
SMALL
USER_CHARGES


@<TRIPOS>ATOM
      1 CA         23.1472   -3.9974   -7.2448 C.3       0 UNK        -0.2020 
      2 C          23.6707   -2.5907   -6.9706 C.2       0 UNK         0.4855 
      3 O          23.0300   -1.6268   -7.3823 O.2       0 UNK        -0.5197 
      4 N          24.8147   -2.4173   -6.2943 N.am      1 UNK        -0.4892 
      5 CA         25.6739   -3.4536   -5.7221 C.3       1 UNK         0.0835 
      6 C6         27.1683   -3.1727   -6.0304 C.3       12 UNK        -0.0855 
      7 S7         28.1327   -4.7057   -6.2435 S.3       12 UNK        -0.2931 
      8 C8         28.7155   -5.0537   -4.5513 C.3       12 UNK         0.0378 
      9 C9         29.6251   -3.9725   -3.9780 C.ar      12 UNK        -0.0802 
     10 C10        30.7981   -3.5949   -4.6441 C.ar      12 UNK        -0.0944 
     11 C11        31.6540   -2.6367   -4.0898 C.ar      12 UNK        -0.0787 
     12 C12        31.3393   -2.0778   -2.8486 C.ar      12 UNK        -0.0862 
     13 C13        30.1614   -2.4264   -2.1846 C.ar      12 UNK        -0.0733 
     14 C14        29.3078   -3.3757   -2.7527 C.ar      12 UNK        -0.0832 
     15 C15        29.8184   -1.7658   -0.8565 C.3       12 UNK         0.0240 
     16 S16        28.4641   -0.5546   -1.0043 S.3       12 UNK        -0.2522 
     17 C17        29.0131    0.5054   -2.3906 C.3       12 UNK        -0.0967 
     18 CA         28.1477    0.2614   -3.6511 C.3       5 UNK         0.0660 
     19 N          26.7412    0.5850   -3.3866 N.am      5 UNK        -0.4015 
     20 C          25.7110    0.4676   -4.2328 C.2       4 UNK         0.4946 
     21 O          25.8184    0.1740   -5.4250 O.2       4 UNK        -0.5353 
     22 CA         24.3287    0.6534   -3.5974 C.3       4 UNK         0.0277 
     23 CB         23.1668    0.5608   -4.6043 C.3       4 UNK        -0.1981 
     24 N          24.1720   -0.3509   -2.5462 N.am      4 UNK        -0.4209 
     25 C          23.3849   -0.2312   -1.4691 C.2       3 UNK         0.4942 
     26 O          22.6914    0.7636   -1.2491 O.2       3 UNK        -0.5208 
     27 CA         23.3903   -1.3894   -0.4455 C.3       3 UNK         0.0250 
     28 CB         22.0288   -1.5616    0.2631 C.3       3 UNK        -0.1990 
     29 N          23.8739   -2.6699   -0.9819 N.am      3 UNK        -0.4232 
     30 C          23.3120   -3.4142   -1.9461 C.2       2 UNK         0.4993 
     31 O          22.2458   -3.1496   -2.5051 O.2       2 UNK        -0.5286 
     32 CA         24.1150   -4.6463   -2.4031 C.3       2 UNK         0.0209 
     33 CB         23.2769   -5.9308   -2.2855 C.3       2 UNK        -0.1931 
     34 N          24.5814   -4.4957   -3.7849 N.am      2 UNK        -0.4546 
     35 C          25.3851   -3.5114   -4.2123 C.2       1 UNK         0.5154 
     36 O          25.8563   -2.6516   -3.4644 O.2       1 UNK        -0.5181 
     37 C          28.7374    0.9830   -4.8787 C.2       5 UNK         0.5014 
     38 O          29.5046    0.3800   -5.6288 O.2       5 UNK        -0.5248 
     39 N          28.3408    2.2472   -5.0875 N.am      6 UNK        -0.4434 
     40 CA         28.7834    3.0896   -6.2026 C.3       6 UNK         0.0363 
     41 CB         28.2396    4.5138   -6.0114 C.3       6 UNK        -0.1936 
     42 C          28.4043    2.5551   -7.5965 C.2       6 UNK         0.5081 
     43 O          29.0910    2.8821   -8.5667 O.2       6 UNK        -0.5248 
     44 N          27.3485    1.7295   -7.6792 N.am      7 UNK        -0.4718 
     45 CA         26.8631    1.1212   -8.9216 C.3       7 UNK         0.0273 
     46 CB         25.5055    0.4517   -8.6710 C.3       7 UNK        -0.1935 
     47 C          27.8460    0.1185   -9.5503 C.2       7 UNK         0.5018 
     48 O          27.7510   -0.1320  -10.7519 O.2       7 UNK        -0.5186 
     49 N          28.8089   -0.3928   -8.7686 N.am      8 UNK        -0.4240 
     50 CA         29.9134   -1.2419   -9.2278 C.3       8 UNK         0.0235 
     51 CB         30.4615   -2.0289   -8.0221 C.3       8 UNK        -0.2000 
     52 C          31.0247   -0.4384   -9.9397 C.2       8 UNK         0.4941 
     53 O          32.2036   -0.7033   -9.7057 O.2       8 UNK        -0.5273 
     54 N          30.6451    0.5570  -10.7575 N.am      9 UNK        -0.4262 
     55 CA         31.5047    1.5328  -11.4444 C.3       9 UNK         0.0264 
     56 CB         32.2557    0.8567  -12.6106 C.3       9 UNK        -0.1955 
     57 C          32.4492    2.2709  -10.4729 C.2       9 UNK         0.5031 
     58 O          33.6539    2.3561  -10.7249 O.2       9 UNK        -0.5390 
     59 N          31.8911    2.7195   -9.3361 N.am      10 UNK        -0.4204 
     60 CA         32.5865    3.3054   -8.1802 C.3       10 UNK         0.0237 
     61 CB         33.1566    4.6945   -8.5377 C.3       10 UNK        -0.1985 
     62 C          33.6454    2.3790   -7.5380 C.2       10 UNK         0.4970 
     63 O          34.5341    2.8731   -6.8422 O.2       10 UNK        -0.4914 
     64 N          33.5383    1.0654   -7.7854 N.am      11 UNK        -0.4285 
     65 CA         34.4861    0.0109   -7.3929 C.3       11 UNK         0.1007 
     66 C          35.8615    0.0981   -8.1218 C.2       11 UNK         0.5703 
     67 N          35.9720    0.8027   -9.2441 N.am      11 UNK        -0.7361 
     68 O          36.8404   -0.5038   -7.6855 O.2       11 UNK        -0.4986 
     69 C69        34.6080   -0.1796   -5.8537 C.3       12 UNK        -0.0947 
     70 S70        32.9877   -0.4003   -5.0445 S.3       12 UNK        -0.2240 
     71 C71        32.9239   -2.2073   -4.8154 C.3       12 UNK         0.0194 
     72 H72        22.9706   -4.5381   -6.3161 H         1 UNK         0.0906 
     73 H73        22.1998   -3.9520   -7.7820 H         1 UNK         0.0906 
     74 H74        23.8471   -4.5603   -7.8619 H         1 UNK         0.0906 
     75 H75        25.1118   -1.4669   -6.0773 H         1 UNK         0.3140 
     76 H76        25.4277   -4.4237   -6.1546 H         1 UNK         0.1085 
     77 H77        27.6419   -2.5173   -5.2991 H         1 UNK         0.0836 
     78 H78        27.2514   -2.6362   -6.9773 H         1 UNK         0.0836 
     79 H79        29.2652   -5.9957   -4.5628 H         1 UNK         0.0731 
     80 H80        27.8505   -5.2179   -3.9073 H         1 UNK         0.0731 
     81 H81        31.0408   -4.0490   -5.5950 H         1 UNK         0.1312 
     82 H82        32.0042   -1.3445   -2.4129 H         1 UNK         0.1406 
     83 H83        28.3957   -3.6453   -2.2371 H         1 UNK         0.1631 
     84 H84        30.6928   -1.2656   -0.4373 H         1 UNK         0.0717 
     85 H85        29.5308   -2.5311   -0.1343 H         1 UNK         0.0717 
     86 H86        28.9452    1.5479   -2.0739 H         1 UNK         0.0934 
     87 H87        30.0697    0.3312   -2.5974 H         1 UNK         0.0934 
     88 H88        28.1825   -0.8050   -3.8783 H         1 UNK         0.0739 
     89 H89        26.5315    0.7948   -2.4215 H         1 UNK         0.3093 
     90 H90        24.3184    1.6513   -3.1538 H         1 UNK         0.0818 
     91 H91        23.3300    1.2133   -5.4631 H         1 UNK         0.0819 
     92 H92        23.0458   -0.4547   -4.9780 H         1 UNK         0.0819 
     93 H93        22.2234    0.8572   -4.1462 H         1 UNK         0.0819 
     94 H94        24.7309   -1.1933   -2.6641 H         1 UNK         0.3041 
     95 H95        24.1151   -1.0979    0.3160 H         1 UNK         0.0784 
     96 H96        21.7506   -0.6560    0.8036 H         1 UNK         0.0793 
     97 H97        21.2271   -1.7740   -0.4446 H         1 UNK         0.0793 
     98 H98        22.0590   -2.3729    0.9903 H         1 UNK         0.0793 
     99 H99        24.7710   -2.9670   -0.6221 H         1 UNK         0.3024 
    100 H100       24.9945   -4.7565   -1.7645 H         1 UNK         0.1171 
    101 H101       22.3997   -5.9032   -2.9336 H         1 UNK         0.0786 
    102 H102       23.8613   -6.8129   -2.5481 H         1 UNK         0.0786 
    103 H103       22.9217   -6.0713   -1.2637 H         1 UNK         0.0786 
    104 H104       24.2102   -5.1549   -4.4527 H         1 UNK         0.2977 
    105 H105       27.6895    2.6593   -4.4354 H         1 UNK         0.3127 
    106 H106       29.8727    3.1324   -6.1596 H         1 UNK         0.0770 
    107 H107       27.1490    4.5335   -6.0161 H         1 UNK         0.0814 
    108 H108       28.5803    5.1718   -6.8124 H         1 UNK         0.0814 
    109 H109       28.5816    4.9484   -5.0720 H         1 UNK         0.0814 
    110 H110       26.8674    1.4590   -6.8279 H         1 UNK         0.2983 
    111 H111       26.7168    1.9261   -9.6451 H         1 UNK         0.0947 
    112 H112       25.0660    0.0951   -9.6034 H         1 UNK         0.0806 
    113 H113       24.7921    1.1395   -8.2167 H         1 UNK         0.0806 
    114 H114       25.6065   -0.4097   -8.0130 H         1 UNK         0.0806 
    115 H115       28.8439   -0.0991   -7.7992 H         1 UNK         0.3000 
    116 H116       29.5241   -1.9614   -9.9509 H         1 UNK         0.0850 
    117 H117       29.6755   -2.5945   -7.5268 H         1 UNK         0.0810 
    118 H118       30.9104   -1.3676   -7.2793 H         1 UNK         0.0810 
    119 H119       31.2264   -2.7432   -8.3287 H         1 UNK         0.0810 
    120 H120       29.6471    0.6674  -10.9015 H         1 UNK         0.3040 
    121 H121       30.8434    2.2909  -11.8667 H         1 UNK         0.0766 
    122 H122       32.9590    0.1029  -12.2547 H         1 UNK         0.0812 
    123 H123       31.5645    0.3715  -13.2996 H         1 UNK         0.0812 
    124 H124       32.8257    1.5880  -13.1851 H         1 UNK         0.0812 
    125 H125       30.8838    2.6188   -9.2207 H         1 UNK         0.3205 
    126 H126       31.8240    3.4537   -7.4162 H         1 UNK         0.0754 
    127 H127       33.5414    5.2020   -7.6523 H         1 UNK         0.0769 
    128 H128       32.3898    5.3382   -8.9688 H         1 UNK         0.0769 
    129 H129       33.9765    4.6231   -9.2532 H         1 UNK         0.0769 
    130 H130       32.8116    0.7434   -8.4135 H         1 UNK         0.2981 
    131 H131       34.0487   -0.9105   -7.7774 H         1 UNK         0.0541 
    132 H132       36.8621    0.8445   -9.7138 H         1 UNK         0.3459 
    133 H133       35.1719    1.2881   -9.6331 H         1 UNK         0.3459 
    134 H134       35.1006    0.6810   -5.3993 H         1 UNK         0.0612 
    135 H135       35.2356   -1.0415   -5.6214 H         1 UNK         0.0612 
    136 H136       32.9941   -2.6881   -5.7924 H         1 UNK         0.0624 
    137 H137       33.7902   -2.5315   -4.2373 H         1 UNK         0.0624 
@<TRIPOS>BOND
     1    1    2 1    
     2    1   72 1    
     3    1   73 1    
     4    1   74 1    
     5    2    3 2    
     6    2    4 am   BACKBONE|DICT|INTERRES
     7    4    5 1    
     8    4   75 1    
     9    5    6 1    
    10    5   35 1    
    11    5   76 1    
    12    6    7 1    
    13    6   77 1    
    14    6   78 1    
    15    7    8 1    
    16    8    9 1    
    17    8   79 1    
    18    8   80 1    
    19    9   10 ar   
    20    9   14 ar   
    21   10   11 ar   
    22   10   81 1    
    23   11   12 ar   
    24   11   71 1    
    25   12   13 ar   
    26   12   82 1    
    27   13   14 ar   
    28   13   15 1    
    29   14   83 1    
    30   15   16 1    
    31   15   84 1    
    32   15   85 1    
    33   16   17 1    
    34   17   18 1    
    35   17   86 1    
    36   17   87 1    
    37   18   19 1    
    38   18   37 1    
    39   18   88 1    
    40   19   20 am   BACKBONE|DICT|INTERRES
    41   19   89 1    
    42   20   21 2    
    43   20   22 1    
    44   22   23 1    
    45   22   24 1    
    46   22   90 1    
    47   23   91 1    
    48   23   92 1    
    49   23   93 1    
    50   24   25 am   BACKBONE|DICT|INTERRES
    51   24   94 1    
    52   25   26 2    
    53   25   27 1    
    54   27   28 1    
    55   27   29 1    
    56   27   95 1    
    57   28   96 1    
    58   28   97 1    
    59   28   98 1    
    60   29   30 am   BACKBONE|DICT|INTERRES
    61   29   99 1    
    62   30   31 2    
    63   30   32 1    
    64   32   33 1    
    65   32   34 1    
    66   32  100 1    
    67   33  101 1    
    68   33  102 1    
    69   33  103 1    
    70   34   35 am   BACKBONE|DICT|INTERRES
    71   34  104 1    
    72   35   36 2    
    73   37   38 2    
    74   37   39 am   BACKBONE|DICT|INTERRES
    75   39   40 1    
    76   39  105 1    
    77   40   41 1    
    78   40   42 1    
    79   40  106 1    
    80   41  107 1    
    81   41  108 1    
    82   41  109 1    
    83   42   43 2    
    84   42   44 am   BACKBONE|DICT|INTERRES
    85   44   45 1    
    86   44  110 1    
    87   45   46 1    
    88   45   47 1    
    89   45  111 1    
    90   46  112 1    
    91   46  113 1    
    92   46  114 1    
    93   47   48 2    
    94   47   49 am   BACKBONE|DICT|INTERRES
    95   49   50 1    
    96   49  115 1    
    97   50   51 1    
    98   50   52 1    
    99   50  116 1    
   100   51  117 1    
   101   51  118 1    
   102   51  119 1    
   103   52   53 2    
   104   52   54 am   BACKBONE|DICT|INTERRES
   105   54   55 1    
   106   54  120 1    
   107   55   56 1    
   108   55   57 1    
   109   55  121 1    
   110   56  122 1    
   111   56  123 1    
   112   56  124 1    
   113   57   58 2    
   114   57   59 am   BACKBONE|DICT|INTERRES
   115   59   60 1    
   116   59  125 1    
   117   60   61 1    
   118   60   62 1    
   119   60  126 1    
   120   61  127 1    
   121   61  128 1    
   122   61  129 1    
   123   62   63 2    
   124   62   64 am   BACKBONE|DICT|INTERRES
   125   64   65 1    
   126   64  130 1    
   127   65   66 1    
   128   65   69 1    
   129   65  131 1    
   130   66   67 am   BACKBONE|DICT|INTERRES
   131   66   68 2    
   132   67  132 1    
   133   67  133 1    
   134   69   70 1    
   135   69  134 1    
   136   69  135 1    
   137   70   71 1    
   138   71  136 1    
   139   71  137 1    
@<TRIPOS>SUBSTRUCTURE
     1 UNK         1 GROUP             0       ****    0 ROOT    
