@<TRIPOS>MOLECULE
3R137
137   139    1
SMALL
USER_CHARGES


@<TRIPOS>ATOM
      1 CA         29.8945   -0.1024   -1.5988 C.3       0 UNK        -0.2020 
      2 C          30.1633   -0.7153   -0.2295 C.2       0 UNK         0.4855 
      3 O          30.8255   -0.0854    0.5931 O.2       0 UNK        -0.5197 
      4 N          29.6899   -1.9325    0.0663 N.am      1 UNK        -0.4892 
      5 CA         28.8399   -2.7976   -0.7661 C.3       1 UNK         0.0835 
      6 C6         28.8955   -4.2710   -0.2816 C.3       12 UNK        -0.0855 
      7 S7         30.6036   -4.9053   -0.1355 S.3       12 UNK        -0.2931 
      8 C8         30.8088   -5.8431   -1.6826 C.3       12 UNK         0.0378 
      9 C9         30.6922   -4.9661   -2.9228 C.ar      12 UNK        -0.0802 
     10 C10        31.6230   -3.9482   -3.1648 C.ar      12 UNK        -0.0944 
     11 C11        31.5368   -3.1642   -4.3206 C.ar      12 UNK        -0.0787 
     12 C12        30.5092   -3.4096   -5.2358 C.ar      12 UNK        -0.0862 
     13 C13        29.5767   -4.4244   -5.0076 C.ar      12 UNK        -0.0733 
     14 C14        29.6701   -5.1979   -3.8483 C.ar      12 UNK        -0.0832 
     15 C15        28.4957   -4.7071   -6.0364 C.3       12 UNK         0.0240 
     16 S16        26.8638   -4.1374   -5.4718 S.3       12 UNK        -0.2522 
     17 C17        26.0284   -3.9147   -7.0823 C.3       12 UNK        -0.0967 
     18 CA         25.8285   -2.4463   -7.5469 C.3       5 UNK         0.0660 
     19 N          24.7049   -1.7870   -6.8769 N.am      5 UNK        -0.4015 
     20 C          23.9333   -0.8622   -7.4679 C.2       4 UNK         0.4946 
     21 O          24.0752   -0.4955   -8.6354 O.2       4 UNK        -0.5353 
     22 CA         22.8170   -0.2291   -6.6205 C.3       4 UNK         0.0277 
     23 CB         21.5802   -1.1416   -6.5847 C.3       4 UNK        -0.1981 
     24 N          23.2317    0.0895   -5.2537 N.am      4 UNK        -0.4209 
     25 C          24.1673    0.9944   -4.9334 C.2       3 UNK         0.4942 
     26 O          24.7900    1.6638   -5.7583 O.2       3 UNK        -0.5208 
     27 CA         24.4852    1.1556   -3.4356 C.3       3 UNK         0.0250 
     28 CB         23.5133    2.1547   -2.7873 C.3       3 UNK        -0.1990 
     29 N          24.4911   -0.0947   -2.6618 N.am      3 UNK        -0.4232 
     30 C          25.2044   -1.1881   -2.9653 C.2       2 UNK         0.4993 
     31 O          25.8397   -1.3236   -4.0111 O.2       2 UNK        -0.5286 
     32 CA         25.2000   -2.3380   -1.9535 C.3       2 UNK         0.0209 
     33 CB         24.3555   -3.5130   -2.4732 C.3       2 UNK        -0.1931 
     34 N          26.5796   -2.7826   -1.7421 N.am      2 UNK        -0.4546 
     35 C          27.3803   -2.2898   -0.7883 C.2       1 UNK         0.5154 
     36 O          26.9956   -1.4824    0.0627 O.2       1 UNK        -0.5181 
     37 C          27.1011   -1.5792   -7.4687 C.2       5 UNK         0.5014 
     38 O          27.8723   -1.5536   -8.4277 O.2       5 UNK        -0.5248 
     39 N          27.2861   -0.8567   -6.3541 N.am      6 UNK        -0.4434 
     40 CA         28.4143    0.0401   -6.1081 C.3       6 UNK         0.0363 
     41 CB         28.3566    0.5509   -4.6649 C.3       6 UNK        -0.1936 
     42 C          28.4904    1.2172   -7.0873 C.2       6 UNK         0.5081 
     43 O          29.5950    1.6395   -7.4297 O.2       6 UNK        -0.5248 
     44 N          27.3288    1.7044   -7.5438 N.am      7 UNK        -0.4718 
     45 CA         27.2119    2.7141   -8.5968 C.3       7 UNK         0.0273 
     46 CB         25.7567    3.2016   -8.6744 C.3       7 UNK        -0.1935 
     47 C          27.6847    2.2033   -9.9695 C.2       7 UNK         0.5018 
     48 O          28.2892    2.9699  -10.7191 O.2       7 UNK        -0.5186 
     49 N          27.4196    0.9226  -10.2666 N.am      8 UNK        -0.4240 
     50 CA         27.8565    0.2502  -11.4927 C.3       8 UNK         0.0235 
     51 CB         26.9778   -0.9849  -11.7513 C.3       8 UNK        -0.2000 
     52 C          29.3442   -0.1318  -11.4365 C.2       8 UNK         0.4941 
     53 O          30.0535    0.0509  -12.4262 O.2       8 UNK        -0.5273 
     54 N          29.7943   -0.6303  -10.2758 N.am      9 UNK        -0.4262 
     55 CA         31.1927   -0.9682   -9.9888 C.3       9 UNK         0.0264 
     56 CB         31.2489   -1.7999   -8.6979 C.3       9 UNK        -0.1955 
     57 C          32.1122    0.2611   -9.8606 C.2       9 UNK         0.5031 
     58 O          33.3273    0.1145   -9.9988 O.2       9 UNK        -0.5390 
     59 N          31.5188    1.4306   -9.5819 N.am      10 UNK        -0.4204 
     60 CA         32.1481    2.7294   -9.3265 C.3       10 UNK         0.0237 
     61 CB         32.9513    3.2213  -10.5501 C.3       10 UNK        -0.1985 
     62 C          32.9516    2.7646   -8.0112 C.2       10 UNK         0.4970 
     63 O          33.9210    3.5198   -7.9138 O.2       10 UNK        -0.4914 
     64 N          32.5201    1.9750   -7.0180 N.am      11 UNK        -0.4285 
     65 CA         33.0371    2.0025   -5.6404 C.3       11 UNK         0.1007 
     66 C          32.1710    2.8656   -4.6771 C.2       11 UNK         0.5703 
     67 N          30.9907    3.3279   -5.0777 N.am      11 UNK        -0.7361 
     68 O          32.5901    3.1416   -3.5556 O.2       11 UNK        -0.4986 
     69 C69        33.3163    0.5775   -5.0895 C.3       12 UNK        -0.0947 
     70 S70        31.8298   -0.4525   -4.8673 S.3       12 UNK        -0.2240 
     71 C71        32.5793   -2.0892   -4.6072 C.3       12 UNK         0.0194 
     72 H72        30.5081    0.7861   -1.7487 H         1 UNK         0.0906 
     73 H73        30.1358   -0.7997   -2.3996 H         1 UNK         0.0906 
     74 H74        28.8502    0.1958   -1.6822 H         1 UNK         0.0906 
     75 H75        29.8894   -2.3071    0.9823 H         1 UNK         0.3140 
     76 H76        29.2126   -2.7705   -1.7912 H         1 UNK         0.1085 
     77 H77        28.3298   -4.9224   -0.9505 H         1 UNK         0.0836 
     78 H78        28.4245   -4.3673    0.6989 H         1 UNK         0.0836 
     79 H79        31.7914   -6.3170   -1.6773 H         1 UNK         0.0731 
     80 H80        30.0800   -6.6550   -1.7049 H         1 UNK         0.0731 
     81 H81        32.4194   -3.7763   -2.4534 H         1 UNK         0.1312 
     82 H82        30.4433   -2.8149   -6.1349 H         1 UNK         0.1406 
     83 H83        28.9518   -5.9888   -3.6781 H         1 UNK         0.1631 
     84 H84        28.4516   -5.7769   -6.2453 H         1 UNK         0.0717 
     85 H85        28.7498   -4.2200   -6.9794 H         1 UNK         0.0717 
     86 H86        26.5819   -4.4605   -7.8484 H         1 UNK         0.0934 
     87 H87        25.0613   -4.4174   -7.0305 H         1 UNK         0.0934 
     88 H88        25.5821   -2.5109   -8.6094 H         1 UNK         0.0739 
     89 H89        24.5845   -1.9852   -5.8926 H         1 UNK         0.3093 
     90 H90        22.5327    0.7081   -7.1043 H         1 UNK         0.0818 
     91 H91        20.7470   -0.6610   -6.0714 H         1 UNK         0.0819 
     92 H92        21.2417   -1.3785   -7.5945 H         1 UNK         0.0819 
     93 H93        21.7861   -2.0865   -6.0802 H         1 UNK         0.0819 
     94 H94        22.7795   -0.4146   -4.5051 H         1 UNK         0.3041 
     95 H95        25.4892    1.5765   -3.3645 H         1 UNK         0.0784 
     96 H96        23.5030    3.0996   -3.3329 H         1 UNK         0.0793 
     97 H97        22.4908    1.7750   -2.7741 H         1 UNK         0.0793 
     98 H98        23.8015    2.3810   -1.7605 H         1 UNK         0.0793 
     99 H99        23.9826   -0.0778   -1.7892 H         1 UNK         0.3024 
    100 H100       24.7661   -1.9949   -1.0112 H         1 UNK         0.1171 
    101 H101       23.3167   -3.2133   -2.6172 H         1 UNK         0.0786 
    102 H102       24.3576   -4.3437   -1.7673 H         1 UNK         0.0786 
    103 H103       24.7209   -3.8875   -3.4295 H         1 UNK         0.0786 
    104 H104       26.9620   -3.3877   -2.4558 H         1 UNK         0.2977 
    105 H105       26.6454   -0.9927   -5.5718 H         1 UNK         0.3127 
    106 H106       29.3205   -0.5511   -6.2307 H         1 UNK         0.0770 
    107 H107       27.4803    1.1750   -4.4951 H         1 UNK         0.0814 
    108 H108       29.2364    1.1471   -4.4221 H         1 UNK         0.0814 
    109 H109       28.3199   -0.2817   -3.9644 H         1 UNK         0.0814 
    110 H110       26.4653    1.3559   -7.1420 H         1 UNK         0.2983 
    111 H111       27.8452    3.5612   -8.3237 H         1 UNK         0.0947 
    112 H112       25.6376    3.9596   -9.4498 H         1 UNK         0.0806 
    113 H113       25.4393    3.6490   -7.7322 H         1 UNK         0.0806 
    114 H114       25.0692    2.3858   -8.9034 H         1 UNK         0.0806 
    115 H115       26.9516    0.3534   -9.5747 H         1 UNK         0.3000 
    116 H116       27.7214    0.9387  -12.3301 H         1 UNK         0.0850 
    117 H117       27.2591   -1.4720  -12.6858 H         1 UNK         0.0810 
    118 H118       25.9253   -0.7123  -11.8320 H         1 UNK         0.0810 
    119 H119       27.0703   -1.7272  -10.9582 H         1 UNK         0.0810 
    120 H120       29.1160   -0.8300   -9.5412 H         1 UNK         0.3040 
    121 H121       31.5693   -1.5794  -10.8115 H         1 UNK         0.0766 
    122 H122       32.2675   -2.1273   -8.4853 H         1 UNK         0.0812 
    123 H123       30.6273   -2.6926   -8.7700 H         1 UNK         0.0812 
    124 H124       30.9089   -1.2201   -7.8402 H         1 UNK         0.0812 
    125 H125       30.5218    1.4051   -9.4056 H         1 UNK         0.3205 
    126 H126       31.3218    3.4271   -9.1820 H         1 UNK         0.0754 
    127 H127       33.2702    4.2559  -10.4181 H         1 UNK         0.0769 
    128 H128       32.3508    3.1823  -11.4590 H         1 UNK         0.0769 
    129 H129       33.8491    2.6248  -10.7141 H         1 UNK         0.0769 
    130 H130       31.6682    1.4456   -7.1606 H         1 UNK         0.2981 
    131 H131       34.0070    2.5026   -5.6511 H         1 UNK         0.0541 
    132 H132       30.6222    3.0764   -5.9835 H         1 UNK         0.3459 
    133 H133       30.4485    3.8994   -4.4504 H         1 UNK         0.3459 
    134 H134       33.8331    0.6392   -4.1302 H         1 UNK         0.0612 
    135 H135       33.9994    0.0577   -5.7630 H         1 UNK         0.0612 
    136 H136       33.1436   -2.3700   -5.4975 H         1 UNK         0.0624 
    137 H137       33.2967   -2.0200   -3.7881 H         1 UNK         0.0624 
@<TRIPOS>BOND
     1    1    2 1    
     2    1   72 1    
     3    1   73 1    
     4    1   74 1    
     5    2    3 2    
     6    2    4 am   BACKBONE|DICT|INTERRES
     7    4    5 1    
     8    4   75 1    
     9    5    6 1    
    10    5   35 1    
    11    5   76 1    
    12    6    7 1    
    13    6   77 1    
    14    6   78 1    
    15    7    8 1    
    16    8    9 1    
    17    8   79 1    
    18    8   80 1    
    19    9   10 ar   
    20    9   14 ar   
    21   10   11 ar   
    22   10   81 1    
    23   11   12 ar   
    24   11   71 1    
    25   12   13 ar   
    26   12   82 1    
    27   13   14 ar   
    28   13   15 1    
    29   14   83 1    
    30   15   16 1    
    31   15   84 1    
    32   15   85 1    
    33   16   17 1    
    34   17   18 1    
    35   17   86 1    
    36   17   87 1    
    37   18   19 1    
    38   18   37 1    
    39   18   88 1    
    40   19   20 am   BACKBONE|DICT|INTERRES
    41   19   89 1    
    42   20   21 2    
    43   20   22 1    
    44   22   23 1    
    45   22   24 1    
    46   22   90 1    
    47   23   91 1    
    48   23   92 1    
    49   23   93 1    
    50   24   25 am   BACKBONE|DICT|INTERRES
    51   24   94 1    
    52   25   26 2    
    53   25   27 1    
    54   27   28 1    
    55   27   29 1    
    56   27   95 1    
    57   28   96 1    
    58   28   97 1    
    59   28   98 1    
    60   29   30 am   BACKBONE|DICT|INTERRES
    61   29   99 1    
    62   30   31 2    
    63   30   32 1    
    64   32   33 1    
    65   32   34 1    
    66   32  100 1    
    67   33  101 1    
    68   33  102 1    
    69   33  103 1    
    70   34   35 am   BACKBONE|DICT|INTERRES
    71   34  104 1    
    72   35   36 2    
    73   37   38 2    
    74   37   39 am   BACKBONE|DICT|INTERRES
    75   39   40 1    
    76   39  105 1    
    77   40   41 1    
    78   40   42 1    
    79   40  106 1    
    80   41  107 1    
    81   41  108 1    
    82   41  109 1    
    83   42   43 2    
    84   42   44 am   BACKBONE|DICT|INTERRES
    85   44   45 1    
    86   44  110 1    
    87   45   46 1    
    88   45   47 1    
    89   45  111 1    
    90   46  112 1    
    91   46  113 1    
    92   46  114 1    
    93   47   48 2    
    94   47   49 am   BACKBONE|DICT|INTERRES
    95   49   50 1    
    96   49  115 1    
    97   50   51 1    
    98   50   52 1    
    99   50  116 1    
   100   51  117 1    
   101   51  118 1    
   102   51  119 1    
   103   52   53 2    
   104   52   54 am   BACKBONE|DICT|INTERRES
   105   54   55 1    
   106   54  120 1    
   107   55   56 1    
   108   55   57 1    
   109   55  121 1    
   110   56  122 1    
   111   56  123 1    
   112   56  124 1    
   113   57   58 2    
   114   57   59 am   BACKBONE|DICT|INTERRES
   115   59   60 1    
   116   59  125 1    
   117   60   61 1    
   118   60   62 1    
   119   60  126 1    
   120   61  127 1    
   121   61  128 1    
   122   61  129 1    
   123   62   63 2    
   124   62   64 am   BACKBONE|DICT|INTERRES
   125   64   65 1    
   126   64  130 1    
   127   65   66 1    
   128   65   69 1    
   129   65  131 1    
   130   66   67 am   BACKBONE|DICT|INTERRES
   131   66   68 2    
   132   67  132 1    
   133   67  133 1    
   134   69   70 1    
   135   69  134 1    
   136   69  135 1    
   137   70   71 1    
   138   71  136 1    
   139   71  137 1    
@<TRIPOS>SUBSTRUCTURE
     1 UNK         1 GROUP             0       ****    0 ROOT    
