@<TRIPOS>MOLECULE
3R137
137   139    1
SMALL
USER_CHARGES


@<TRIPOS>ATOM
      1 CA         24.8959   -6.0392   -4.6711 C.3       0 UNK        -0.2020 
      2 C          25.5618   -5.2493   -3.5551 C.2       0 UNK         0.4855 
      3 O          24.8765   -4.7680   -2.6522 O.2       0 UNK        -0.5197 
      4 N          26.8918   -5.0966   -3.6164 N.am      1 UNK        -0.4892 
      5 CA         27.7054   -4.3329   -2.6618 C.3       1 UNK         0.0835 
      6 C6         29.2217   -4.4863   -2.9599 C.3       12 UNK        -0.0855 
      7 S7         30.2399   -4.6850   -1.4588 S.3       12 UNK        -0.2931 
      8 C8         30.4264   -2.9764   -0.8357 C.3       12 UNK         0.0378 
      9 C9         30.9809   -1.9640   -1.8378 C.ar      12 UNK        -0.0802 
     10 C10        31.9297   -2.3162   -2.8064 C.ar      12 UNK        -0.0944 
     11 C11        32.4074   -1.3701   -3.7198 C.ar      12 UNK        -0.0787 
     12 C12        31.9469   -0.0511   -3.6398 C.ar      12 UNK        -0.0862 
     13 C13        31.0256    0.3229   -2.6583 C.ar      12 UNK        -0.0733 
     14 C14        30.5433   -0.6384   -1.7664 C.ar      12 UNK        -0.0832 
     15 C15        30.5507    1.7660   -2.5560 C.3       12 UNK         0.0240 
     16 S16        29.6451    2.3123   -4.0367 S.3       12 UNK        -0.2522 
     17 C17        28.2290    1.1647   -4.0628 C.3       12 UNK        -0.0967 
     18 CA         27.6146    1.0440   -5.4781 C.3       5 UNK         0.0660 
     19 N          26.9785   -0.2637   -5.6853 N.am      5 UNK        -0.4015 
     20 C          26.3677   -0.6836   -6.8048 C.2       4 UNK         0.4946 
     21 O          26.2547   -0.0071   -7.8254 O.2       4 UNK        -0.5353 
     22 CA         25.6995   -2.0646   -6.7506 C.3       4 UNK         0.0277 
     23 CB         26.7319   -3.1958   -6.8896 C.3       4 UNK        -0.1981 
     24 N          24.9359   -2.2141   -5.5111 N.am      4 UNK        -0.4209 
     25 C          23.7255   -1.6705   -5.3104 C.2       3 UNK         0.4942 
     26 O          23.0711   -1.1165   -6.1932 O.2       3 UNK        -0.5208 
     27 CA         23.1521   -1.7237   -3.8833 C.3       3 UNK         0.0250 
     28 CB         22.1855   -2.9084   -3.7273 C.3       3 UNK        -0.1990 
     29 N          24.1908   -1.7883   -2.8505 N.am      3 UNK        -0.4232 
     30 C          24.9850   -0.7563   -2.5241 C.2       2 UNK         0.4993 
     31 O          24.9036    0.3564   -3.0454 O.2       2 UNK        -0.5286 
     32 CA         26.0969   -1.0220   -1.4900 C.3       2 UNK         0.0209 
     33 CB         25.5789   -0.7793   -0.0642 C.3       2 UNK        -0.1931 
     34 N          26.6752   -2.3682   -1.5804 N.am      2 UNK        -0.4546 
     35 C          27.2767   -2.8524   -2.6753 C.2       1 UNK         0.5154 
     36 O          27.4321   -2.1936   -3.7049 O.2       1 UNK        -0.5181 
     37 C          26.6831    2.2356   -5.7854 C.2       5 UNK         0.5014 
     38 O          27.1393    3.2384   -6.3366 O.2       5 UNK        -0.5248 
     39 N          25.3891    2.0838   -5.4661 N.am      6 UNK        -0.4434 
     40 CA         24.3161    3.0193   -5.8102 C.3       6 UNK         0.0363 
     41 CB         23.0016    2.5257   -5.1855 C.3       6 UNK        -0.1936 
     42 C          24.1389    3.2538   -7.3252 C.2       6 UNK         0.5081 
     43 O          23.6726    4.3286   -7.7051 O.2       6 UNK        -0.5248 
     44 N          24.5137    2.2726   -8.1593 N.am      7 UNK        -0.4718 
     45 CA         24.5788    2.4081   -9.6140 C.3       7 UNK         0.0273 
     46 CB         24.2029    1.0778  -10.2892 C.3       7 UNK        -0.1935 
     47 C          25.9755    2.8829  -10.0429 C.2       7 UNK         0.5018 
     48 O          26.0728    3.8921  -10.7429 O.2       7 UNK        -0.5186 
     49 N          27.0269    2.1748   -9.6056 N.am      8 UNK        -0.4240 
     50 CA         28.4276    2.5138   -9.8604 C.3       8 UNK         0.0235 
     51 CB         28.8082    2.2022  -11.3216 C.3       8 UNK        -0.2000 
     52 C          29.3303    1.7278   -8.9054 C.2       8 UNK         0.4941 
     53 O          29.0996    0.5357   -8.6932 O.2       8 UNK        -0.5273 
     54 N          30.3829    2.3776   -8.3914 N.am      9 UNK        -0.4262 
     55 CA         31.3962    1.7904   -7.5055 C.3       9 UNK         0.0264 
     56 CB         32.1284    2.9245   -6.7638 C.3       9 UNK        -0.1955 
     57 C          32.3685    0.8661   -8.2670 C.2       9 UNK         0.5031 
     58 O          33.5712    1.1333   -8.3227 O.2       9 UNK        -0.5390 
     59 N          31.8262   -0.1997   -8.8658 N.am      10 UNK        -0.4204 
     60 CA         32.5281   -1.1857   -9.6892 C.3       10 UNK         0.0237 
     61 CB         31.4971   -1.8947  -10.5878 C.3       10 UNK        -0.1985 
     62 C          33.3626   -2.1713   -8.8469 C.2       10 UNK         0.4970 
     63 O          33.1130   -3.3777   -8.8803 O.2       10 UNK        -0.4914 
     64 N          34.3346   -1.6385   -8.0981 N.am      11 UNK        -0.4285 
     65 CA         35.2704   -2.4057   -7.2600 C.3       11 UNK         0.1007 
     66 C          36.3686   -3.1733   -8.0540 C.2       11 UNK         0.5703 
     67 N          36.5625   -2.9209   -9.3435 N.am      11 UNK        -0.7361 
     68 O          37.0533   -4.0222   -7.4879 O.2       11 UNK        -0.4986 
     69 C69        35.9107   -1.5224   -6.1533 C.3       12 UNK        -0.0947 
     70 S70        34.7603   -0.6264   -5.0486 S.3       12 UNK        -0.2240 
     71 C71        33.3832   -1.7992   -4.8108 C.3       12 UNK         0.0194 
     72 H72        24.2798   -6.8339   -4.2513 H         1 UNK         0.0906 
     73 H73        24.2541   -5.3863   -5.2620 H         1 UNK         0.0906 
     74 H74        25.6254   -6.4949   -5.3402 H         1 UNK         0.0906 
     75 H75        27.3968   -5.5017   -4.3916 H         1 UNK         0.3140 
     76 H76        27.4932   -4.7496   -1.6747 H         1 UNK         0.1085 
     77 H77        29.6120   -3.6813   -3.5855 H         1 UNK         0.0836 
     78 H78        29.3968   -5.3921   -3.5426 H         1 UNK         0.0836 
     79 H79        31.0901   -2.9983    0.0296 H         1 UNK         0.0731 
     80 H80        29.4558   -2.6450   -0.4640 H         1 UNK         0.0731 
     81 H81        32.2834   -3.3363   -2.8633 H         1 UNK         0.1312 
     82 H82        32.3029    0.6893   -4.3426 H         1 UNK         0.1406 
     83 H83        29.8242   -0.3522   -1.0107 H         1 UNK         0.1631 
     84 H84        31.4162    2.4148   -2.4150 H         1 UNK         0.0717 
     85 H85        29.9143    1.9092   -1.6814 H         1 UNK         0.0717 
     86 H86        28.5852    0.1875   -3.7381 H         1 UNK         0.0934 
     87 H87        27.4904    1.4765   -3.3218 H         1 UNK         0.0934 
     88 H88        28.4271    1.0798   -6.2031 H         1 UNK         0.0739 
     89 H89        27.0616   -0.9242   -4.9143 H         1 UNK         0.3093 
     90 H90        25.0131   -2.1369   -7.5975 H         1 UNK         0.0818 
     91 H91        27.2749   -3.1059   -7.8315 H         1 UNK         0.0819 
     92 H92        27.4725   -3.1835   -6.0906 H         1 UNK         0.0819 
     93 H93        26.2503   -4.1733   -6.8871 H         1 UNK         0.0819 
     94 H94        25.4288   -2.6011   -4.7183 H         1 UNK         0.3041 
     95 H95        22.5823   -0.8045   -3.7290 H         1 UNK         0.0784 
     96 H96        21.3668   -2.8381   -4.4449 H         1 UNK         0.0793 
     97 H97        22.6808   -3.8645   -3.8950 H         1 UNK         0.0793 
     98 H98        21.7415   -2.9305   -2.7320 H         1 UNK         0.0793 
     99 H99        24.3528   -2.6928   -2.4200 H         1 UNK         0.3024 
    100 H100       26.8978   -0.3066   -1.6866 H         1 UNK         0.1171 
    101 H101       26.3800   -0.8681    0.6700 H         1 UNK         0.0786 
    102 H102       25.1626    0.2245    0.0335 H         1 UNK         0.0786 
    103 H103       24.7934   -1.4858    0.2070 H         1 UNK         0.0786 
    104 H104       26.5373   -2.9769   -0.7859 H         1 UNK         0.2977 
    105 H105       25.1230    1.2656   -4.9282 H         1 UNK         0.3127 
    106 H106       24.5693    3.9816   -5.3607 H         1 UNK         0.0770 
    107 H107       22.7026    1.5584   -5.5908 H         1 UNK         0.0814 
    108 H108       22.1889    3.2265   -5.3811 H         1 UNK         0.0814 
    109 H109       23.0883    2.4236   -4.1034 H         1 UNK         0.0814 
    110 H110       24.9429    1.4360   -7.7745 H         1 UNK         0.2983 
    111 H111       23.8557    3.1572   -9.9447 H         1 UNK         0.0947 
    112 H112       24.8932    0.2737  -10.0344 H         1 UNK         0.0806 
    113 H113       24.2120    1.1795  -11.3751 H         1 UNK         0.0806 
    114 H114       23.2008    0.7593  -10.0018 H         1 UNK         0.0806 
    115 H115       26.8748    1.3590   -9.0120 H         1 UNK         0.3000 
    116 H116       28.5625    3.5808   -9.6702 H         1 UNK         0.0850 
    117 H117       29.8627    2.4120  -11.5055 H         1 UNK         0.0810 
    118 H118       28.2347    2.8047  -12.0259 H         1 UNK         0.0810 
    119 H119       28.6376    1.1522  -11.5632 H         1 UNK         0.0810 
    120 H120       30.5280    3.3432   -8.6502 H         1 UNK         0.3040 
    121 H121       30.8901    1.1778   -6.7560 H         1 UNK         0.0766 
    122 H122       31.4337    3.5406   -6.1930 H         1 UNK         0.0812 
    123 H123       32.6672    3.5770   -7.4520 H         1 UNK         0.0812 
    124 H124       32.8567    2.5221   -6.0583 H         1 UNK         0.0812 
    125 H125       30.8162   -0.3001   -8.7874 H         1 UNK         0.3205 
    126 H126       33.2242   -0.6546  -10.3418 H         1 UNK         0.0754 
    127 H127       31.9815   -2.6143  -11.2493 H         1 UNK         0.0769 
    128 H128       30.9664   -1.1822  -11.2200 H         1 UNK         0.0769 
    129 H129       30.7547   -2.4367  -10.0003 H         1 UNK         0.0769 
    130 H130       34.4374   -0.6280   -8.0963 H         1 UNK         0.2981 
    131 H131       34.6938   -3.1885   -6.7658 H         1 UNK         0.0541 
    132 H132       37.2741   -3.4294   -9.8443 H         1 UNK         0.3459 
    133 H133       36.0116   -2.2237   -9.8171 H         1 UNK         0.3459 
    134 H134       36.5487   -2.1332   -5.5118 H         1 UNK         0.0612 
    135 H135       36.5685   -0.7788   -6.6068 H         1 UNK         0.0612 
    136 H136       32.8272   -1.9032   -5.7427 H         1 UNK         0.0624 
    137 H137       33.8012   -2.7792   -4.5758 H         1 UNK         0.0624 
@<TRIPOS>BOND
     1    1    2 1    
     2    1   72 1    
     3    1   73 1    
     4    1   74 1    
     5    2    3 2    
     6    2    4 am   BACKBONE|DICT|INTERRES
     7    4    5 1    
     8    4   75 1    
     9    5    6 1    
    10    5   35 1    
    11    5   76 1    
    12    6    7 1    
    13    6   77 1    
    14    6   78 1    
    15    7    8 1    
    16    8    9 1    
    17    8   79 1    
    18    8   80 1    
    19    9   10 ar   
    20    9   14 ar   
    21   10   11 ar   
    22   10   81 1    
    23   11   12 ar   
    24   11   71 1    
    25   12   13 ar   
    26   12   82 1    
    27   13   14 ar   
    28   13   15 1    
    29   14   83 1    
    30   15   16 1    
    31   15   84 1    
    32   15   85 1    
    33   16   17 1    
    34   17   18 1    
    35   17   86 1    
    36   17   87 1    
    37   18   19 1    
    38   18   37 1    
    39   18   88 1    
    40   19   20 am   BACKBONE|DICT|INTERRES
    41   19   89 1    
    42   20   21 2    
    43   20   22 1    
    44   22   23 1    
    45   22   24 1    
    46   22   90 1    
    47   23   91 1    
    48   23   92 1    
    49   23   93 1    
    50   24   25 am   BACKBONE|DICT|INTERRES
    51   24   94 1    
    52   25   26 2    
    53   25   27 1    
    54   27   28 1    
    55   27   29 1    
    56   27   95 1    
    57   28   96 1    
    58   28   97 1    
    59   28   98 1    
    60   29   30 am   BACKBONE|DICT|INTERRES
    61   29   99 1    
    62   30   31 2    
    63   30   32 1    
    64   32   33 1    
    65   32   34 1    
    66   32  100 1    
    67   33  101 1    
    68   33  102 1    
    69   33  103 1    
    70   34   35 am   BACKBONE|DICT|INTERRES
    71   34  104 1    
    72   35   36 2    
    73   37   38 2    
    74   37   39 am   BACKBONE|DICT|INTERRES
    75   39   40 1    
    76   39  105 1    
    77   40   41 1    
    78   40   42 1    
    79   40  106 1    
    80   41  107 1    
    81   41  108 1    
    82   41  109 1    
    83   42   43 2    
    84   42   44 am   BACKBONE|DICT|INTERRES
    85   44   45 1    
    86   44  110 1    
    87   45   46 1    
    88   45   47 1    
    89   45  111 1    
    90   46  112 1    
    91   46  113 1    
    92   46  114 1    
    93   47   48 2    
    94   47   49 am   BACKBONE|DICT|INTERRES
    95   49   50 1    
    96   49  115 1    
    97   50   51 1    
    98   50   52 1    
    99   50  116 1    
   100   51  117 1    
   101   51  118 1    
   102   51  119 1    
   103   52   53 2    
   104   52   54 am   BACKBONE|DICT|INTERRES
   105   54   55 1    
   106   54  120 1    
   107   55   56 1    
   108   55   57 1    
   109   55  121 1    
   110   56  122 1    
   111   56  123 1    
   112   56  124 1    
   113   57   58 2    
   114   57   59 am   BACKBONE|DICT|INTERRES
   115   59   60 1    
   116   59  125 1    
   117   60   61 1    
   118   60   62 1    
   119   60  126 1    
   120   61  127 1    
   121   61  128 1    
   122   61  129 1    
   123   62   63 2    
   124   62   64 am   BACKBONE|DICT|INTERRES
   125   64   65 1    
   126   64  130 1    
   127   65   66 1    
   128   65   69 1    
   129   65  131 1    
   130   66   67 am   BACKBONE|DICT|INTERRES
   131   66   68 2    
   132   67  132 1    
   133   67  133 1    
   134   69   70 1    
   135   69  134 1    
   136   69  135 1    
   137   70   71 1    
   138   71  136 1    
   139   71  137 1    
@<TRIPOS>SUBSTRUCTURE
     1 UNK         1 GROUP             0       ****    0 ROOT    
