@<TRIPOS>MOLECULE
3R137
137   139    1
SMALL
USER_CHARGES


@<TRIPOS>ATOM
      1 CA         23.2830   -3.9982   -7.4967 C.3       0 UNK        -0.2020 
      2 C          23.5727   -4.7032   -6.1811 C.2       0 UNK         0.4855 
      3 O          22.6693   -5.2931   -5.5887 O.2       0 UNK        -0.5197 
      4 N          24.8260   -4.6386   -5.7144 N.am      1 UNK        -0.4892 
      5 CA         25.2864   -5.2204   -4.4455 C.3       1 UNK         0.0835 
      6 C6         26.7900   -5.5933   -4.5035 C.3       12 UNK        -0.0855 
      7 S7         27.8751   -4.2165   -5.0152 S.3       12 UNK        -0.2931 
      8 C8         29.0555   -4.1699   -3.6348 C.3       12 UNK         0.0378 
      9 C9         29.9462   -2.9437   -3.7349 C.ar      12 UNK        -0.0802 
     10 C10        31.2321   -3.0266   -4.2768 C.ar      12 UNK        -0.0944 
     11 C11        32.0391   -1.8865   -4.3560 C.ar      12 UNK        -0.0787 
     12 C12        31.5423   -0.6555   -3.9133 C.ar      12 UNK        -0.0862 
     13 C13        30.2517   -0.5613   -3.3821 C.ar      12 UNK        -0.0733 
     14 C14        29.4717   -1.7145   -3.2770 C.ar      12 UNK        -0.0832 
     15 C15        29.7029    0.7701   -2.8864 C.3       12 UNK         0.0240 
     16 S16        29.6060    2.0412   -4.1923 S.3       12 UNK        -0.2522 
     17 C17        28.4371    1.3924   -5.4458 C.3       12 UNK        -0.0967 
     18 CA         27.2023    0.5955   -4.9402 C.3       5 UNK         0.0660 
     19 N          26.4579    1.2244   -3.8430 N.am      5 UNK        -0.4015 
     20 C          25.9317    2.4562   -3.7840 C.2       4 UNK         0.4946 
     21 O          25.9844    3.2551   -4.7208 O.2       4 UNK        -0.5353 
     22 CA         25.1716    2.8592   -2.5011 C.3       4 UNK         0.0277 
     23 CB         23.7658    3.3859   -2.8420 C.3       4 UNK        -0.1981 
     24 N          25.0354    1.7652   -1.5354 N.am      4 UNK        -0.4209 
     25 C          25.9740    1.3658   -0.6652 C.2       3 UNK         0.4942 
     26 O          27.0449    1.9480   -0.4970 O.2       3 UNK        -0.5208 
     27 CA         25.6868    0.0647    0.1123 C.3       3 UNK         0.0250 
     28 CB         25.1125    0.3839    1.5019 C.3       3 UNK        -0.1990 
     29 N          24.7812   -0.8575   -0.5903 N.am      3 UNK        -0.4232 
     30 C          25.0436   -1.4243   -1.7768 C.2       2 UNK         0.4993 
     31 O          26.0938   -1.2462   -2.3949 O.2       2 UNK        -0.5286 
     32 CA         23.9038   -2.2236   -2.4223 C.3       2 UNK         0.0209 
     33 CB         22.9032   -1.2617   -3.0880 C.3       2 UNK        -0.1931 
     34 N          24.3957   -3.1467   -3.4446 N.am      2 UNK        -0.4546 
     35 C          24.9218   -4.3569   -3.2131 C.2       1 UNK         0.5154 
     36 O          25.0819   -4.8196   -2.0819 O.2       1 UNK        -0.5181 
     37 C          26.2771    0.1643   -6.0961 C.2       5 UNK         0.5014 
     38 O          26.3569   -0.9839   -6.5383 O.2       5 UNK        -0.5248 
     39 N          25.3855    1.0674   -6.5295 N.am      6 UNK        -0.4434 
     40 CA         24.3570    0.8930   -7.5589 C.3       6 UNK         0.0363 
     41 CB         23.2538   -0.0728   -7.0687 C.3       6 UNK        -0.1936 
     42 C          24.9619    0.5033   -8.9205 C.2       6 UNK         0.5081 
     43 O          25.3673    1.3890   -9.6734 O.2       6 UNK        -0.5248 
     44 N          25.0088   -0.8031   -9.2117 N.am      7 UNK        -0.4718 
     45 CA         25.6219   -1.3665  -10.4160 C.3       7 UNK         0.0273 
     46 CB         25.0750   -2.7842  -10.6514 C.3       7 UNK        -0.1935 
     47 C          27.1600   -1.3898  -10.3556 C.2       7 UNK         0.5018 
     48 O          27.7934   -1.3874  -11.4125 O.2       7 UNK        -0.5186 
     49 N          27.7366   -1.4251   -9.1449 N.am      8 UNK        -0.4240 
     50 CA         29.1820   -1.3458   -8.9293 C.3       8 UNK         0.0235 
     51 CB         29.5326   -1.9483   -7.5582 C.3       8 UNK        -0.2000 
     52 C          29.6689    0.1076   -9.0437 C.2       8 UNK         0.4941 
     53 O          28.9253    1.0352   -8.7163 O.2       8 UNK        -0.5273 
     54 N          30.9154    0.2780   -9.4906 N.am      9 UNK        -0.4262 
     55 CA         31.5914    1.5589   -9.6719 C.3       9 UNK         0.0264 
     56 CB         31.0746    2.2599  -10.9440 C.3       9 UNK        -0.1955 
     57 C          33.0973    1.2936   -9.7666 C.2       9 UNK         0.5031 
     58 O          33.4979    0.1500  -10.0013 O.2       9 UNK        -0.5390 
     59 N          33.9017    2.3489   -9.5757 N.am      10 UNK        -0.4204 
     60 CA         35.3731    2.4154   -9.6535 C.3       10 UNK         0.0237 
     61 CB         35.8739    2.0406  -11.0629 C.3       10 UNK        -0.1985 
     62 C          36.1416    1.6274   -8.5724 C.2       10 UNK         0.4970 
     63 O          37.2487    2.0341   -8.2181 O.2       10 UNK        -0.4914 
     64 N          35.5574    0.5398   -8.0605 N.am      11 UNK        -0.4285 
     65 CA         36.0935   -0.3140   -6.9914 C.3       11 UNK         0.1007 
     66 C          36.2058    0.3501   -5.5865 C.2       11 UNK         0.5703 
     67 N          35.5825    1.4960   -5.3373 N.am      11 UNK        -0.7361 
     68 O          36.8790   -0.1850   -4.7089 O.2       11 UNK        -0.4986 
     69 C69        35.3465   -1.6738   -6.9372 C.3       12 UNK        -0.0947 
     70 S70        33.5475   -1.5229   -6.6467 S.3       12 UNK        -0.2240 
     71 C71        33.4577   -1.9875   -4.8922 C.3       12 UNK         0.0194 
     72 H72        24.1305   -3.3987   -7.8232 H         1 UNK         0.0906 
     73 H73        23.0604   -4.7288   -8.2740 H         1 UNK         0.0906 
     74 H74        22.4214   -3.3395   -7.3905 H         1 UNK         0.0906 
     75 H75        25.5391   -4.1378   -6.2291 H         1 UNK         0.3140 
     76 H76        24.7437   -6.1574   -4.2992 H         1 UNK         0.1085 
     77 H77        26.9296   -6.4000   -5.2249 H         1 UNK         0.0836 
     78 H78        27.1213   -6.0042   -3.5478 H         1 UNK         0.0836 
     79 H79        29.6536   -5.0824   -3.6349 H         1 UNK         0.0731 
     80 H80        28.5112   -4.1512   -2.6888 H         1 UNK         0.0731 
     81 H81        31.6070   -3.9780   -4.6288 H         1 UNK         0.1312 
     82 H82        32.1601    0.2298   -3.9813 H         1 UNK         0.1406 
     83 H83        28.4819   -1.6613   -2.8481 H         1 UNK         0.1631 
     84 H84        30.3574    1.1408   -2.0966 H         1 UNK         0.0717 
     85 H85        28.7237    0.6459   -2.4235 H         1 UNK         0.0717 
     86 H86        28.1175    2.2389   -6.0563 H         1 UNK         0.0934 
     87 H87        29.0242    0.7610   -6.1115 H         1 UNK         0.0934 
     88 H88        27.5702   -0.3386   -4.5237 H         1 UNK         0.0739 
     89 H89        26.3024    0.5983   -3.0595 H         1 UNK         0.3093 
     90 H90        25.7372    3.6697   -2.0365 H         1 UNK         0.0818 
     91 H91        23.8195    4.2513   -3.5041 H         1 UNK         0.0819 
     92 H92        23.1612    2.6294   -3.3440 H         1 UNK         0.0819 
     93 H93        23.2323    3.7034   -1.9458 H         1 UNK         0.0819 
     94 H94        24.1820    1.2286   -1.5849 H         1 UNK         0.3041 
     95 H95        26.6416   -0.4488    0.2456 H         1 UNK         0.0784 
     96 H96        25.7787    1.0467    2.0564 H         1 UNK         0.0793 
     97 H97        24.1425    0.8784    1.4357 H         1 UNK         0.0793 
     98 H98        24.9898   -0.5203    2.0986 H         1 UNK         0.0793 
     99 H99        23.8918   -1.0400   -0.1465 H         1 UNK         0.3024 
    100 H100       23.3918   -2.7970   -1.6458 H         1 UNK         0.1171 
    101 H101       22.4503   -0.5912   -2.3568 H         1 UNK         0.0786 
    102 H102       23.3827   -0.6421   -3.8476 H         1 UNK         0.0786 
    103 H103       22.0894   -1.8065   -3.5674 H         1 UNK         0.0786 
    104 H104       24.3559   -2.8321   -4.4022 H         1 UNK         0.2977 
    105 H105       25.4408    1.9914   -6.1075 H         1 UNK         0.3127 
    106 H106       23.8929    1.8705   -7.6997 H         1 UNK         0.0770 
    107 H107       23.6482   -1.0433   -6.7691 H         1 UNK         0.0814 
    108 H108       22.5068   -0.2434   -7.8452 H         1 UNK         0.0814 
    109 H109       22.7295    0.3438   -6.2087 H         1 UNK         0.0814 
    110 H110       24.6980   -1.4526   -8.5055 H         1 UNK         0.2983 
    111 H111       25.3367   -0.7460  -11.2687 H         1 UNK         0.0947 
    112 H112       25.4400   -3.1861  -11.5977 H         1 UNK         0.0806 
    113 H113       23.9858   -2.7910  -10.6973 H         1 UNK         0.0806 
    114 H114       25.3872   -3.4750   -9.8678 H         1 UNK         0.0806 
    115 H115       27.1517   -1.3529   -8.3173 H         1 UNK         0.3000 
    116 H116       29.6842   -1.9392   -9.6969 H         1 UNK         0.0850 
    117 H117       30.5992   -1.8630   -7.3489 H         1 UNK         0.0810 
    118 H118       29.2820   -3.0082   -7.5193 H         1 UNK         0.0810 
    119 H119       29.0039   -1.4578   -6.7422 H         1 UNK         0.0810 
    120 H120       31.5057   -0.5210   -9.6941 H         1 UNK         0.3040 
    121 H121       31.4027    2.1860   -8.7979 H         1 UNK         0.0766 
    122 H122       31.5796    3.2131  -11.1044 H         1 UNK         0.0812 
    123 H123       31.2390    1.6492  -11.8327 H         1 UNK         0.0812 
    124 H124       30.0072    2.4713  -10.8782 H         1 UNK         0.0812 
    125 H125       33.4570    3.2304   -9.3564 H         1 UNK         0.3205 
    126 H126       35.6226    3.4654   -9.4913 H         1 UNK         0.0754 
    127 H127       36.9495    2.2006  -11.1494 H         1 UNK         0.0769 
    128 H128       35.3940    2.6493  -11.8293 H         1 UNK         0.0769 
    129 H129       35.6841    0.9930  -11.2988 H         1 UNK         0.0769 
    130 H130       34.6759    0.2446   -8.4676 H         1 UNK         0.2981 
    131 H131       37.1230   -0.5382   -7.2766 H         1 UNK         0.0541 
    132 H132       35.6695    1.9177   -4.4265 H         1 UNK         0.3459 
    133 H133       35.0255    1.9384   -6.0495 H         1 UNK         0.3459 
    134 H134       35.7914   -2.3310   -6.1877 H         1 UNK         0.0612 
    135 H135       35.4777   -2.1925   -7.8880 H         1 UNK         0.0612 
    136 H136       33.8367   -3.0033   -4.7697 H         1 UNK         0.0624 
    137 H137       34.1142   -1.3410   -4.3086 H         1 UNK         0.0624 
@<TRIPOS>BOND
     1    1    2 1    
     2    1   72 1    
     3    1   73 1    
     4    1   74 1    
     5    2    3 2    
     6    2    4 am   BACKBONE|DICT|INTERRES
     7    4    5 1    
     8    4   75 1    
     9    5    6 1    
    10    5   35 1    
    11    5   76 1    
    12    6    7 1    
    13    6   77 1    
    14    6   78 1    
    15    7    8 1    
    16    8    9 1    
    17    8   79 1    
    18    8   80 1    
    19    9   10 ar   
    20    9   14 ar   
    21   10   11 ar   
    22   10   81 1    
    23   11   12 ar   
    24   11   71 1    
    25   12   13 ar   
    26   12   82 1    
    27   13   14 ar   
    28   13   15 1    
    29   14   83 1    
    30   15   16 1    
    31   15   84 1    
    32   15   85 1    
    33   16   17 1    
    34   17   18 1    
    35   17   86 1    
    36   17   87 1    
    37   18   19 1    
    38   18   37 1    
    39   18   88 1    
    40   19   20 am   BACKBONE|DICT|INTERRES
    41   19   89 1    
    42   20   21 2    
    43   20   22 1    
    44   22   23 1    
    45   22   24 1    
    46   22   90 1    
    47   23   91 1    
    48   23   92 1    
    49   23   93 1    
    50   24   25 am   BACKBONE|DICT|INTERRES
    51   24   94 1    
    52   25   26 2    
    53   25   27 1    
    54   27   28 1    
    55   27   29 1    
    56   27   95 1    
    57   28   96 1    
    58   28   97 1    
    59   28   98 1    
    60   29   30 am   BACKBONE|DICT|INTERRES
    61   29   99 1    
    62   30   31 2    
    63   30   32 1    
    64   32   33 1    
    65   32   34 1    
    66   32  100 1    
    67   33  101 1    
    68   33  102 1    
    69   33  103 1    
    70   34   35 am   BACKBONE|DICT|INTERRES
    71   34  104 1    
    72   35   36 2    
    73   37   38 2    
    74   37   39 am   BACKBONE|DICT|INTERRES
    75   39   40 1    
    76   39  105 1    
    77   40   41 1    
    78   40   42 1    
    79   40  106 1    
    80   41  107 1    
    81   41  108 1    
    82   41  109 1    
    83   42   43 2    
    84   42   44 am   BACKBONE|DICT|INTERRES
    85   44   45 1    
    86   44  110 1    
    87   45   46 1    
    88   45   47 1    
    89   45  111 1    
    90   46  112 1    
    91   46  113 1    
    92   46  114 1    
    93   47   48 2    
    94   47   49 am   BACKBONE|DICT|INTERRES
    95   49   50 1    
    96   49  115 1    
    97   50   51 1    
    98   50   52 1    
    99   50  116 1    
   100   51  117 1    
   101   51  118 1    
   102   51  119 1    
   103   52   53 2    
   104   52   54 am   BACKBONE|DICT|INTERRES
   105   54   55 1    
   106   54  120 1    
   107   55   56 1    
   108   55   57 1    
   109   55  121 1    
   110   56  122 1    
   111   56  123 1    
   112   56  124 1    
   113   57   58 2    
   114   57   59 am   BACKBONE|DICT|INTERRES
   115   59   60 1    
   116   59  125 1    
   117   60   61 1    
   118   60   62 1    
   119   60  126 1    
   120   61  127 1    
   121   61  128 1    
   122   61  129 1    
   123   62   63 2    
   124   62   64 am   BACKBONE|DICT|INTERRES
   125   64   65 1    
   126   64  130 1    
   127   65   66 1    
   128   65   69 1    
   129   65  131 1    
   130   66   67 am   BACKBONE|DICT|INTERRES
   131   66   68 2    
   132   67  132 1    
   133   67  133 1    
   134   69   70 1    
   135   69  134 1    
   136   69  135 1    
   137   70   71 1    
   138   71  136 1    
   139   71  137 1    
@<TRIPOS>SUBSTRUCTURE
     1 UNK         1 GROUP             0       ****    0 ROOT    
