@<TRIPOS>MOLECULE
3R137
137   139    1
SMALL
USER_CHARGES


@<TRIPOS>ATOM
      1 CA         25.1138   -5.9285   -1.2625 C.3       0 UNK        -0.2020 
      2 C          26.5789   -5.8184   -0.8463 C.2       0 UNK         0.4855 
      3 O          27.0034   -6.5837    0.0172 O.2       0 UNK        -0.5197 
      4 N          27.4021   -4.9095   -1.3940 N.am      1 UNK        -0.4892 
      5 CA         27.1550   -3.8813   -2.4173 C.3       1 UNK         0.0835 
      6 C6         27.0516   -4.4332   -3.8680 C.3       12 UNK        -0.0855 
      7 S7         28.4994   -5.4047   -4.4125 S.3       12 UNK        -0.2931 
      8 C8         29.2022   -4.3558   -5.7319 C.3       12 UNK         0.0378 
      9 C9         30.2710   -3.4187   -5.1889 C.ar      12 UNK        -0.0802 
     10 C10        31.6194   -3.6496   -5.4670 C.ar      12 UNK        -0.0944 
     11 C11        32.6094   -2.8057   -4.9523 C.ar      12 UNK        -0.0787 
     12 C12        32.2361   -1.7436   -4.1222 C.ar      12 UNK        -0.0862 
     13 C13        30.8909   -1.5051   -3.8186 C.ar      12 UNK        -0.0733 
     14 C14        29.9149   -2.3343   -4.3870 C.ar      12 UNK        -0.0832 
     15 C15        30.5576   -0.3872   -2.8263 C.3       12 UNK         0.0240 
     16 S16        28.7802   -0.1385   -2.4728 S.3       12 UNK        -0.2522 
     17 C17        28.3316    1.1339   -3.6964 C.3       12 UNK        -0.0967 
     18 CA         27.8183    0.5516   -5.0343 C.3       5 UNK         0.0660 
     19 N          26.5519   -0.1867   -4.9171 N.am      5 UNK        -0.4015 
     20 C          25.9943   -0.8572   -5.9421 C.2       4 UNK         0.4946 
     21 O          26.5820   -1.0540   -7.0063 O.2       4 UNK        -0.5353 
     22 CA         24.5268   -1.3115   -5.8305 C.3       4 UNK         0.0277 
     23 CB         24.3569   -2.8205   -6.0737 C.3       4 UNK        -0.1981 
     24 N          23.8762   -0.9204   -4.5788 N.am      4 UNK        -0.4209 
     25 C          23.4153    0.3147   -4.3269 C.2       3 UNK         0.4942 
     26 O          23.4966    1.2437   -5.1316 O.2       3 UNK        -0.5208 
     27 CA         22.8053    0.5772   -2.9366 C.3       3 UNK         0.0250 
     28 CB         21.2826    0.3724   -2.9721 C.3       3 UNK        -0.1990 
     29 N          23.3823   -0.2467   -1.8689 N.am      3 UNK        -0.4232 
     30 C          24.6728   -0.2315   -1.5070 C.2       2 UNK         0.4993 
     31 O          25.5073    0.5083   -2.0281 O.2       2 UNK        -0.5286 
     32 CA         25.1322   -1.2393   -0.4320 C.3       2 UNK         0.0209 
     33 CB         23.9768   -2.0042    0.2551 C.3       2 UNK        -0.1931 
     34 N          26.1192   -2.1897   -0.9662 N.am      2 UNK        -0.4546 
     35 C          25.9703   -2.9608   -2.0539 C.2       1 UNK         0.5154 
     36 O          24.9402   -2.9915   -2.7306 O.2       1 UNK        -0.5181 
     37 C          27.7338    1.6735   -6.0870 C.2       5 UNK         0.5014 
     38 O          28.7293    1.9172   -6.7662 O.2       5 UNK        -0.5248 
     39 N          26.5586    2.3049   -6.2375 N.am      6 UNK        -0.4434 
     40 CA         26.2946    3.3072   -7.2724 C.3       6 UNK         0.0363 
     41 CB         24.9598    4.0096   -6.9789 C.3       6 UNK        -0.1936 
     42 C          26.2919    2.7095   -8.6905 C.2       6 UNK         0.5081 
     43 O          26.7742    3.3576   -9.6184 O.2       6 UNK        -0.5248 
     44 N          25.7753    1.4798   -8.8291 N.am      7 UNK        -0.4718 
     45 CA         25.7575    0.7239  -10.0843 C.3       7 UNK         0.0273 
     46 CB         24.7487   -0.4320   -9.9798 C.3       7 UNK        -0.1935 
     47 C          27.1529    0.2031  -10.4644 C.2       7 UNK         0.5018 
     48 O          27.5319    0.2822  -11.6331 O.2       7 UNK        -0.5186 
     49 N          27.8997   -0.2918   -9.4673 N.am      8 UNK        -0.4240 
     50 CA         29.2828   -0.7563   -9.6095 C.3       8 UNK         0.0235 
     51 CB         29.6332   -1.6405   -8.3998 C.3       8 UNK        -0.2000 
     52 C          30.3123    0.3814   -9.7465 C.2       8 UNK         0.4941 
     53 O          31.4662    0.0977  -10.0708 O.2       8 UNK        -0.5273 
     54 N          29.9080    1.6241   -9.4382 N.am      9 UNK        -0.4262 
     55 CA         30.7377    2.8311   -9.3075 C.3       9 UNK         0.0264 
     56 CB         31.2873    3.2702  -10.6810 C.3       9 UNK        -0.1955 
     57 C          31.8391    2.6725   -8.2369 C.2       9 UNK         0.5031 
     58 O          32.9509    3.1725   -8.4160 O.2       9 UNK        -0.5390 
     59 N          31.5009    1.9460   -7.1596 N.am      10 UNK        -0.4204 
     60 CA         32.3712    1.4557   -6.0849 C.3       10 UNK         0.0237 
     61 CB         32.7636    2.6098   -5.1402 C.3       10 UNK        -0.1985 
     62 C          33.5835    0.6603   -6.6166 C.2       10 UNK         0.4970 
     63 O          34.7146    0.9177   -6.2010 O.2       10 UNK        -0.4914 
     64 N          33.3130   -0.2703   -7.5442 N.am      11 UNK        -0.4285 
     65 CA         34.2949   -0.9905   -8.3708 C.3       11 UNK         0.1007 
     66 C          35.0299   -0.0253   -9.3433 C.2       11 UNK         0.5703 
     67 N          34.2936    0.6257  -10.2338 N.am      11 UNK        -0.7361 
     68 O          36.2486    0.1341   -9.3060 O.2       11 UNK        -0.4986 
     69 C69        35.2501   -1.9184   -7.5641 C.3       12 UNK        -0.0947 
     70 S70        34.4302   -3.4369   -6.9809 S.3       12 UNK        -0.2240 
     71 C71        34.0843   -3.0834   -5.2249 C.3       12 UNK         0.0194 
     72 H72        24.7190   -6.9081   -0.9939 H         1 UNK         0.0906 
     73 H73        24.5149   -5.1787   -0.7464 H         1 UNK         0.0906 
     74 H74        24.9725   -5.8102   -2.3332 H         1 UNK         0.0906 
     75 H75        28.3560   -4.9169   -1.0601 H         1 UNK         0.3140 
     76 H76        28.0363   -3.2410   -2.3834 H         1 UNK         0.1085 
     77 H77        26.1720   -5.0628   -3.9939 H         1 UNK         0.0836 
     78 H78        26.9133   -3.6026   -4.5603 H         1 UNK         0.0836 
     79 H79        28.4208   -3.7839   -6.2344 H         1 UNK         0.0731 
     80 H80        29.6288   -5.0081   -6.4954 H         1 UNK         0.0731 
     81 H81        31.9016   -4.4955   -6.0788 H         1 UNK         0.1312 
     82 H82        33.0000   -1.1134   -3.6867 H         1 UNK         0.1406 
     83 H83        28.8684   -2.1712   -4.1884 H         1 UNK         0.1631 
     84 H84        31.0068    0.5489   -3.1591 H         1 UNK         0.0717 
     85 H85        31.0421   -0.6302   -1.8796 H         1 UNK         0.0717 
     86 H86        29.1992    1.7775   -3.8575 H         1 UNK         0.0934 
     87 H87        27.5722    1.7774   -3.2481 H         1 UNK         0.0934 
     88 H88        28.5675   -0.1473   -5.4069 H         1 UNK         0.0739 
     89 H89        26.0362   -0.0588   -4.0531 H         1 UNK         0.3093 
     90 H90        24.0060   -0.8085   -6.6483 H         1 UNK         0.0818 
     91 H91        23.3058   -3.0766   -6.2062 H         1 UNK         0.0819 
     92 H92        24.8794   -3.1385   -6.9771 H         1 UNK         0.0819 
     93 H93        24.7355   -3.4194   -5.2498 H         1 UNK         0.0819 
     94 H94        23.8558   -1.6201   -3.8429 H         1 UNK         0.3041 
     95 H95        23.0041    1.6221   -2.6888 H         1 UNK         0.0784 
     96 H96        20.8234    0.9936   -3.7427 H         1 UNK         0.0793 
     97 H97        21.0188   -0.6636   -3.1887 H         1 UNK         0.0793 
     98 H98        20.8223    0.6459   -2.0224 H         1 UNK         0.0793 
     99 H99        22.7647   -0.9032   -1.4137 H         1 UNK         0.3024 
    100 H100       25.6422   -0.6489    0.3312 H         1 UNK         0.1171 
    101 H101       24.3563   -2.6445    1.0517 H         1 UNK         0.0786 
    102 H102       23.4285   -2.6417   -0.4397 H         1 UNK         0.0786 
    103 H103       23.2648   -1.3176    0.7152 H         1 UNK         0.0786 
    104 H104       27.0043   -2.2172   -0.4788 H         1 UNK         0.2977 
    105 H105       25.7788    2.0451   -5.6473 H         1 UNK         0.3127 
    106 H106       27.0903    4.0544   -7.2298 H         1 UNK         0.0770 
    107 H107       24.1227    3.3101   -6.9890 H         1 UNK         0.0814 
    108 H108       24.7516    4.7782   -7.7247 H         1 UNK         0.0814 
    109 H109       24.9747    4.4998   -6.0054 H         1 UNK         0.0814 
    110 H110       25.4282    1.0076   -8.0076 H         1 UNK         0.2983 
    111 H111       25.4250    1.3929  -10.8814 H         1 UNK         0.0947 
    112 H112       24.6896   -0.9806  -10.9207 H         1 UNK         0.0806 
    113 H113       23.7466   -0.0656   -9.7565 H         1 UNK         0.0806 
    114 H114       25.0249   -1.1479   -9.2051 H         1 UNK         0.0806 
    115 H115       27.4751   -0.3932   -8.5476 H         1 UNK         0.3000 
    116 H116       29.3510   -1.3662  -10.5127 H         1 UNK         0.0850 
    117 H117       30.6378   -2.0565   -8.4897 H         1 UNK         0.0810 
    118 H118       28.9443   -2.4807   -8.3149 H         1 UNK         0.0810 
    119 H119       29.5925   -1.0817   -7.4643 H         1 UNK         0.0810 
    120 H120       28.9502    1.7307   -9.1308 H         1 UNK         0.3040 
    121 H121       30.0740    3.6185   -8.9469 H         1 UNK         0.0766 
    122 H122       31.7961    4.2321  -10.6088 H         1 UNK         0.0812 
    123 H123       30.4852    3.3821  -11.4104 H         1 UNK         0.0812 
    124 H124       32.0053    2.5527  -11.0788 H         1 UNK         0.0812 
    125 H125       30.5149    1.6994   -7.0799 H         1 UNK         0.3205 
    126 H126       31.7703    0.7498   -5.5125 H         1 UNK         0.0754 
    127 H127       33.3296    2.2401   -4.2843 H         1 UNK         0.0769 
    128 H128       31.8819    3.1182   -4.7499 H         1 UNK         0.0769 
    129 H129       33.3823    3.3517   -5.6463 H         1 UNK         0.0769 
    130 H130       32.3578   -0.3630   -7.8554 H         1 UNK         0.2981 
    131 H131       33.7074   -1.6376   -9.0239 H         1 UNK         0.0541 
    132 H132       33.2845    0.4955  -10.2520 H         1 UNK         0.3459 
    133 H133       34.7353    1.2653  -10.8737 H         1 UNK         0.3459 
    134 H134       35.7292   -1.3939   -6.7379 H         1 UNK         0.0612 
    135 H135       36.0674   -2.2587   -8.2022 H         1 UNK         0.0612 
    136 H136       34.7066   -2.2564   -4.8807 H         1 UNK         0.0624 
    137 H137       34.3808   -3.9527   -4.6368 H         1 UNK         0.0624 
@<TRIPOS>BOND
     1    1    2 1    
     2    1   72 1    
     3    1   73 1    
     4    1   74 1    
     5    2    3 2    
     6    2    4 am   BACKBONE|DICT|INTERRES
     7    4    5 1    
     8    4   75 1    
     9    5    6 1    
    10    5   35 1    
    11    5   76 1    
    12    6    7 1    
    13    6   77 1    
    14    6   78 1    
    15    7    8 1    
    16    8    9 1    
    17    8   79 1    
    18    8   80 1    
    19    9   10 ar   
    20    9   14 ar   
    21   10   11 ar   
    22   10   81 1    
    23   11   12 ar   
    24   11   71 1    
    25   12   13 ar   
    26   12   82 1    
    27   13   14 ar   
    28   13   15 1    
    29   14   83 1    
    30   15   16 1    
    31   15   84 1    
    32   15   85 1    
    33   16   17 1    
    34   17   18 1    
    35   17   86 1    
    36   17   87 1    
    37   18   19 1    
    38   18   37 1    
    39   18   88 1    
    40   19   20 am   BACKBONE|DICT|INTERRES
    41   19   89 1    
    42   20   21 2    
    43   20   22 1    
    44   22   23 1    
    45   22   24 1    
    46   22   90 1    
    47   23   91 1    
    48   23   92 1    
    49   23   93 1    
    50   24   25 am   BACKBONE|DICT|INTERRES
    51   24   94 1    
    52   25   26 2    
    53   25   27 1    
    54   27   28 1    
    55   27   29 1    
    56   27   95 1    
    57   28   96 1    
    58   28   97 1    
    59   28   98 1    
    60   29   30 am   BACKBONE|DICT|INTERRES
    61   29   99 1    
    62   30   31 2    
    63   30   32 1    
    64   32   33 1    
    65   32   34 1    
    66   32  100 1    
    67   33  101 1    
    68   33  102 1    
    69   33  103 1    
    70   34   35 am   BACKBONE|DICT|INTERRES
    71   34  104 1    
    72   35   36 2    
    73   37   38 2    
    74   37   39 am   BACKBONE|DICT|INTERRES
    75   39   40 1    
    76   39  105 1    
    77   40   41 1    
    78   40   42 1    
    79   40  106 1    
    80   41  107 1    
    81   41  108 1    
    82   41  109 1    
    83   42   43 2    
    84   42   44 am   BACKBONE|DICT|INTERRES
    85   44   45 1    
    86   44  110 1    
    87   45   46 1    
    88   45   47 1    
    89   45  111 1    
    90   46  112 1    
    91   46  113 1    
    92   46  114 1    
    93   47   48 2    
    94   47   49 am   BACKBONE|DICT|INTERRES
    95   49   50 1    
    96   49  115 1    
    97   50   51 1    
    98   50   52 1    
    99   50  116 1    
   100   51  117 1    
   101   51  118 1    
   102   51  119 1    
   103   52   53 2    
   104   52   54 am   BACKBONE|DICT|INTERRES
   105   54   55 1    
   106   54  120 1    
   107   55   56 1    
   108   55   57 1    
   109   55  121 1    
   110   56  122 1    
   111   56  123 1    
   112   56  124 1    
   113   57   58 2    
   114   57   59 am   BACKBONE|DICT|INTERRES
   115   59   60 1    
   116   59  125 1    
   117   60   61 1    
   118   60   62 1    
   119   60  126 1    
   120   61  127 1    
   121   61  128 1    
   122   61  129 1    
   123   62   63 2    
   124   62   64 am   BACKBONE|DICT|INTERRES
   125   64   65 1    
   126   64  130 1    
   127   65   66 1    
   128   65   69 1    
   129   65  131 1    
   130   66   67 am   BACKBONE|DICT|INTERRES
   131   66   68 2    
   132   67  132 1    
   133   67  133 1    
   134   69   70 1    
   135   69  134 1    
   136   69  135 1    
   137   70   71 1    
   138   71  136 1    
   139   71  137 1    
@<TRIPOS>SUBSTRUCTURE
     1 UNK         1 GROUP             0       ****    0 ROOT    
