@<TRIPOS>MOLECULE
3R137
137   139    1
SMALL
USER_CHARGES


@<TRIPOS>ATOM
      1 CA         27.9511   -1.2898    4.6771 C.3       0 UNK        -0.2020 
      2 C          28.1454   -0.8779    3.2253 C.2       0 UNK         0.4855 
      3 O          28.5067    0.2686    2.9575 O.2       0 UNK        -0.5197 
      4 N          27.9174   -1.8050    2.2865 N.am      1 UNK        -0.4892 
      5 CA         27.9833   -1.5608    0.8429 C.3       1 UNK         0.0835 
      6 C6         28.0859   -2.8951    0.0619 C.3       12 UNK        -0.0855 
      7 S7         28.5016   -2.6493   -1.6970 S.3       12 UNK        -0.2931 
      8 C8         29.6468   -4.0249   -2.0124 C.3       12 UNK         0.0378 
      9 C9         29.9253   -4.1411   -3.5022 C.ar      12 UNK        -0.0802 
     10 C10        31.0292   -3.4998   -4.0714 C.ar      12 UNK        -0.0944 
     11 C11        31.2538   -3.5596   -5.4514 C.ar      12 UNK        -0.0787 
     12 C12        30.3694   -4.2838   -6.2611 C.ar      12 UNK        -0.0862 
     13 C13        29.2770   -4.9532   -5.6970 C.ar      12 UNK        -0.0733 
     14 C14        29.0598   -4.8735   -4.3185 C.ar      12 UNK        -0.0832 
     15 C15        28.3530   -5.8075   -6.5541 C.3       12 UNK         0.0240 
     16 S16        26.6849   -5.0862   -6.7071 S.3       12 UNK        -0.2522 
     17 C17        26.6488   -4.5051   -8.4415 C.3       12 UNK        -0.0967 
     18 CA         26.3902   -2.9875   -8.6010 C.3       5 UNK         0.0660 
     19 N          25.1803   -2.5439   -7.9048 N.am      5 UNK        -0.4015 
     20 C          24.5884   -1.3559   -8.0909 C.2       4 UNK         0.4946 
     21 O          24.9608   -0.5282   -8.9224 O.2       4 UNK        -0.5353 
     22 CA         23.4185   -1.0118   -7.1523 C.3       4 UNK         0.0277 
     23 CB         22.1002   -1.5850   -7.6960 C.3       4 UNK        -0.1981 
     24 N          23.6295   -1.4701   -5.7731 N.am      4 UNK        -0.4209 
     25 C          24.6354   -1.0577   -4.9894 C.2       3 UNK         0.4942 
     26 O          25.4902   -0.2464   -5.3526 O.2       3 UNK        -0.5208 
     27 CA         24.7418   -1.7170   -3.6042 C.3       3 UNK         0.0250 
     28 CB         25.4442   -3.0808   -3.7179 C.3       3 UNK        -0.1990 
     29 N          25.4901   -0.8820   -2.6635 N.am      3 UNK        -0.4232 
     30 C          25.0386    0.2585   -2.1221 C.2       2 UNK         0.4993 
     31 O          23.8952    0.6868   -2.2939 O.2       2 UNK        -0.5286 
     32 CA         26.0349    1.0540   -1.2512 C.3       2 UNK         0.0209 
     33 CB         25.3392    2.0186   -0.2656 C.3       2 UNK        -0.1931 
     34 N          27.0161    0.2044   -0.5590 N.am      2 UNK        -0.4546 
     35 C          26.7700   -0.7235    0.3794 C.2       1 UNK         0.5154 
     36 O          25.6521   -0.9641    0.8438 O.2       1 UNK        -0.5181 
     37 C          27.6273   -2.1489   -8.2267 C.2       5 UNK         0.5014 
     38 O          28.4461   -1.8730   -9.1024 O.2       5 UNK        -0.5248 
     39 N          27.7248   -1.7250   -6.9583 N.am      6 UNK        -0.4434 
     40 CA         28.7924   -0.8565   -6.4647 C.3       6 UNK         0.0363 
     41 CB         28.7778   -0.8151   -4.9299 C.3       6 UNK        -0.1936 
     42 C          28.6859    0.5563   -7.0474 C.2       6 UNK         0.5081 
     43 O          29.6951    1.1098   -7.4824 O.2       6 UNK        -0.5248 
     44 N          27.4571    1.0903   -7.0904 N.am      7 UNK        -0.4718 
     45 CA         27.1252    2.3682   -7.7218 C.3       7 UNK         0.0273 
     46 CB         25.6606    2.7243   -7.4220 C.3       7 UNK        -0.1935 
     47 C          27.3962    2.3712   -9.2364 C.2       7 UNK         0.5018 
     48 O          27.9208    3.3603   -9.7487 O.2       7 UNK        -0.5186 
     49 N          27.0651    1.2625   -9.9155 N.am      8 UNK        -0.4240 
     50 CA         27.3511    1.0428  -11.3352 C.3       8 UNK         0.0235 
     51 CB         26.5908   -0.1957  -11.8358 C.3       8 UNK        -0.2000 
     52 C          28.8558    0.9153  -11.6290 C.2       8 UNK         0.4941 
     53 O          29.3315    1.5175  -12.5925 O.2       8 UNK        -0.5273 
     54 N          29.5771    0.1449  -10.8008 N.am      9 UNK        -0.4262 
     55 CA         31.0270   -0.0474  -10.9006 C.3       9 UNK         0.0264 
     56 CB         31.4527   -1.2239  -10.0049 C.3       9 UNK        -0.1955 
     57 C          31.8381    1.2071  -10.5360 C.2       9 UNK         0.5031 
     58 O          32.9203    1.3992  -11.0923 O.2       9 UNK        -0.5390 
     59 N          31.3184    2.0069   -9.5920 N.am      10 UNK        -0.4204 
     60 CA         31.9598    3.1548   -8.9399 C.3       10 UNK         0.0237 
     61 CB         32.2213    4.2995   -9.9421 C.3       10 UNK        -0.1985 
     62 C          33.2110    2.7370   -8.1409 C.2       10 UNK         0.4970 
     63 O          34.2070    3.4633   -8.1235 O.2       10 UNK        -0.4914 
     64 N          33.1380    1.5561   -7.5137 N.am      11 UNK        -0.4285 
     65 CA         34.2020    0.9595   -6.6982 C.3       11 UNK         0.1007 
     66 C          34.4078    1.6716   -5.3305 C.2       11 UNK         0.5703 
     67 N          35.5525    1.4627   -4.6934 N.am      11 UNK        -0.7361 
     68 O          33.5450    2.3939   -4.8329 O.2       11 UNK        -0.4986 
     69 C69        34.0091   -0.5755   -6.5594 C.3       12 UNK        -0.0947 
     70 S70        32.4156   -1.0616   -5.8182 S.3       12 UNK        -0.2240 
     71 C71        32.4682   -2.8651   -6.0565 C.3       12 UNK         0.0194 
     72 H72        28.8797   -1.1588    5.2320 H         1 UNK         0.0906 
     73 H73        27.1853   -0.6703    5.1430 H         1 UNK         0.0906 
     74 H74        27.6459   -2.3321    4.7688 H         1 UNK         0.0906 
     75 H75        27.5861   -2.7185    2.5628 H         1 UNK         0.3140 
     76 H76        28.8933   -0.9860    0.6532 H         1 UNK         0.1085 
     77 H77        28.8571   -3.5218    0.5131 H         1 UNK         0.0836 
     78 H78        27.1562   -3.4640    0.1295 H         1 UNK         0.0836 
     79 H79        30.5735   -3.8651   -1.4589 H         1 UNK         0.0731 
     80 H80        29.2149   -4.9554   -1.6403 H         1 UNK         0.0731 
     81 H81        31.7037   -2.9330   -3.4442 H         1 UNK         0.1312 
     82 H82        30.5410   -4.3412   -7.3273 H         1 UNK         0.1406 
     83 H83        28.2077   -5.3769   -3.8817 H         1 UNK         0.1631 
     84 H84        28.2566   -6.7893   -6.0883 H         1 UNK         0.0717 
     85 H85        28.7923   -5.9918   -7.5349 H         1 UNK         0.0717 
     86 H86        27.5640   -4.7879   -8.9644 H         1 UNK         0.0934 
     87 H87        25.8540   -5.0553   -8.9477 H         1 UNK         0.0934 
     88 H88        26.2171   -2.8101   -9.6647 H         1 UNK         0.0739 
     89 H89        24.8155   -3.1699   -7.2021 H         1 UNK         0.3093 
     90 H90        23.3318    0.0766   -7.1271 H         1 UNK         0.0818 
     91 H91        21.2499   -1.2658   -7.0929 H         1 UNK         0.0819 
     92 H92        21.9179   -1.2414   -8.7154 H         1 UNK         0.0819 
     93 H93        22.1080   -2.6755   -7.7164 H         1 UNK         0.0819 
     94 H94        22.9678   -2.1411   -5.4088 H         1 UNK         0.3041 
     95 H95        23.7354   -1.8666   -3.2075 H         1 UNK         0.0784 
     96 H96        26.4514   -2.9865   -4.1265 H         1 UNK         0.0793 
     97 H97        25.5261   -3.5665   -2.7452 H         1 UNK         0.0793 
     98 H98        24.8909   -3.7590   -4.3685 H         1 UNK         0.0793 
     99 H99        26.4429   -1.1594   -2.4746 H         1 UNK         0.3024 
    100 H100       26.6054    1.6655   -1.9525 H         1 UNK         0.1171 
    101 H101       24.7332    2.7523   -0.7987 H         1 UNK         0.0786 
    102 H102       26.0664    2.5723    0.3283 H         1 UNK         0.0786 
    103 H103       24.6768    1.4908    0.4210 H         1 UNK         0.0786 
    104 H104       27.9700    0.3030   -0.8800 H         1 UNK         0.2977 
    105 H105       26.9889   -1.9553   -6.3080 H         1 UNK         0.3127 
    106 H106       29.7382   -1.2893   -6.7915 H         1 UNK         0.0770 
    107 H107       27.9199   -0.2731   -4.5345 H         1 UNK         0.0814 
    108 H108       29.6734   -0.3241   -4.5483 H         1 UNK         0.0814 
    109 H109       28.7571   -1.8198   -4.5147 H         1 UNK         0.0814 
    110 H110       26.6942    0.5753   -6.6578 H         1 UNK         0.2983 
    111 H111       27.7626    3.1326   -7.2720 H         1 UNK         0.0947 
    112 H112       25.4010    3.6955   -7.8454 H         1 UNK         0.0806 
    113 H113       25.4773    2.7774   -6.3486 H         1 UNK         0.0806 
    114 H114       24.9719    1.9906   -7.8414 H         1 UNK         0.0806 
    115 H115       26.5602    0.5271   -9.4285 H         1 UNK         0.3000 
    116 H116       26.9799    1.9106  -11.8849 H         1 UNK         0.0850 
    117 H117       26.7617   -0.3540  -12.9014 H         1 UNK         0.0810 
    118 H118       25.5157   -0.0857  -11.6921 H         1 UNK         0.0810 
    119 H119       26.9062   -1.1008  -11.3168 H         1 UNK         0.0810 
    120 H120       29.0988   -0.3850  -10.0749 H         1 UNK         0.3040 
    121 H121       31.2627   -0.3039  -11.9356 H         1 UNK         0.0766 
    122 H122       32.5290   -1.3923  -10.0619 H         1 UNK         0.0812 
    123 H123       30.9637   -2.1497  -10.3081 H         1 UNK         0.0812 
    124 H124       31.2057   -1.0445   -8.9575 H         1 UNK         0.0812 
    125 H125       30.4631    1.6949   -9.1372 H         1 UNK         0.3205 
    126 H126       31.2413    3.5204   -8.2047 H         1 UNK         0.0754 
    127 H127       32.5632    5.1979   -9.4269 H         1 UNK         0.0769 
    128 H128       31.3134    4.5631  -10.4850 H         1 UNK         0.0769 
    129 H129       32.9854    4.0346  -10.6733 H         1 UNK         0.0769 
    130 H130       32.2597    1.0565   -7.5220 H         1 UNK         0.2981 
    131 H131       35.1308    1.1083   -7.2527 H         1 UNK         0.0541 
    132 H132       35.7042    1.9087   -3.8023 H         1 UNK         0.3459 
    133 H133       36.2681    0.8703   -5.0848 H         1 UNK         0.3459 
    134 H134       34.8169   -1.0162   -5.9727 H         1 UNK         0.0612 
    135 H135       34.0750   -1.0350   -7.5469 H         1 UNK         0.0612 
    136 H136       32.5427   -3.0772   -7.1243 H         1 UNK         0.0624 
    137 H137       33.3727   -3.2624   -5.5939 H         1 UNK         0.0624 
@<TRIPOS>BOND
     1    1    2 1    
     2    1   72 1    
     3    1   73 1    
     4    1   74 1    
     5    2    3 2    
     6    2    4 am   BACKBONE|DICT|INTERRES
     7    4    5 1    
     8    4   75 1    
     9    5    6 1    
    10    5   35 1    
    11    5   76 1    
    12    6    7 1    
    13    6   77 1    
    14    6   78 1    
    15    7    8 1    
    16    8    9 1    
    17    8   79 1    
    18    8   80 1    
    19    9   10 ar   
    20    9   14 ar   
    21   10   11 ar   
    22   10   81 1    
    23   11   12 ar   
    24   11   71 1    
    25   12   13 ar   
    26   12   82 1    
    27   13   14 ar   
    28   13   15 1    
    29   14   83 1    
    30   15   16 1    
    31   15   84 1    
    32   15   85 1    
    33   16   17 1    
    34   17   18 1    
    35   17   86 1    
    36   17   87 1    
    37   18   19 1    
    38   18   37 1    
    39   18   88 1    
    40   19   20 am   BACKBONE|DICT|INTERRES
    41   19   89 1    
    42   20   21 2    
    43   20   22 1    
    44   22   23 1    
    45   22   24 1    
    46   22   90 1    
    47   23   91 1    
    48   23   92 1    
    49   23   93 1    
    50   24   25 am   BACKBONE|DICT|INTERRES
    51   24   94 1    
    52   25   26 2    
    53   25   27 1    
    54   27   28 1    
    55   27   29 1    
    56   27   95 1    
    57   28   96 1    
    58   28   97 1    
    59   28   98 1    
    60   29   30 am   BACKBONE|DICT|INTERRES
    61   29   99 1    
    62   30   31 2    
    63   30   32 1    
    64   32   33 1    
    65   32   34 1    
    66   32  100 1    
    67   33  101 1    
    68   33  102 1    
    69   33  103 1    
    70   34   35 am   BACKBONE|DICT|INTERRES
    71   34  104 1    
    72   35   36 2    
    73   37   38 2    
    74   37   39 am   BACKBONE|DICT|INTERRES
    75   39   40 1    
    76   39  105 1    
    77   40   41 1    
    78   40   42 1    
    79   40  106 1    
    80   41  107 1    
    81   41  108 1    
    82   41  109 1    
    83   42   43 2    
    84   42   44 am   BACKBONE|DICT|INTERRES
    85   44   45 1    
    86   44  110 1    
    87   45   46 1    
    88   45   47 1    
    89   45  111 1    
    90   46  112 1    
    91   46  113 1    
    92   46  114 1    
    93   47   48 2    
    94   47   49 am   BACKBONE|DICT|INTERRES
    95   49   50 1    
    96   49  115 1    
    97   50   51 1    
    98   50   52 1    
    99   50  116 1    
   100   51  117 1    
   101   51  118 1    
   102   51  119 1    
   103   52   53 2    
   104   52   54 am   BACKBONE|DICT|INTERRES
   105   54   55 1    
   106   54  120 1    
   107   55   56 1    
   108   55   57 1    
   109   55  121 1    
   110   56  122 1    
   111   56  123 1    
   112   56  124 1    
   113   57   58 2    
   114   57   59 am   BACKBONE|DICT|INTERRES
   115   59   60 1    
   116   59  125 1    
   117   60   61 1    
   118   60   62 1    
   119   60  126 1    
   120   61  127 1    
   121   61  128 1    
   122   61  129 1    
   123   62   63 2    
   124   62   64 am   BACKBONE|DICT|INTERRES
   125   64   65 1    
   126   64  130 1    
   127   65   66 1    
   128   65   69 1    
   129   65  131 1    
   130   66   67 am   BACKBONE|DICT|INTERRES
   131   66   68 2    
   132   67  132 1    
   133   67  133 1    
   134   69   70 1    
   135   69  134 1    
   136   69  135 1    
   137   70   71 1    
   138   71  136 1    
   139   71  137 1    
@<TRIPOS>SUBSTRUCTURE
     1 UNK         1 GROUP             0       ****    0 ROOT    
