@<TRIPOS>MOLECULE
3R137
137   139    1
SMALL
USER_CHARGES


@<TRIPOS>ATOM
      1 CA         29.6638   -0.1409   -1.7713 C.3       0 UNK        -0.2020 
      2 C          30.1737   -0.7016   -0.4483 C.2       0 UNK         0.4855 
      3 O          30.9555   -0.0340    0.2256 O.2       0 UNK        -0.5197 
      4 N          29.7785   -1.9118   -0.0296 N.am      1 UNK        -0.4892 
      5 CA         28.8130   -2.8151   -0.6698 C.3       1 UNK         0.0835 
      6 C6         28.9256   -4.2357   -0.0597 C.3       12 UNK        -0.0855 
      7 S7         28.4382   -5.5607   -1.2157 S.3       12 UNK        -0.2931 
      8 C8         30.0173   -5.9406   -2.0445 C.3       12 UNK         0.0378 
      9 C9         30.2620   -5.0124   -3.2253 C.ar      12 UNK        -0.0802 
     10 C10        31.1274   -3.9176   -3.1133 C.ar      12 UNK        -0.0944 
     11 C11        31.3348   -3.0605   -4.2002 C.ar      12 UNK        -0.0787 
     12 C12        30.6797   -3.3274   -5.4075 C.ar      12 UNK        -0.0862 
     13 C13        29.8088   -4.4115   -5.5343 C.ar      12 UNK        -0.0733 
     14 C14        29.6136   -5.2578   -4.4392 C.ar      12 UNK        -0.0832 
     15 C15        29.1069   -4.6608   -6.8663 C.3       12 UNK         0.0240 
     16 S16        27.3314   -5.0496   -6.7158 S.3       12 UNK        -0.2522 
     17 C17        26.6690   -3.5703   -5.8823 C.3       12 UNK        -0.0967 
     18 CA         26.1670   -2.4869   -6.8753 C.3       5 UNK         0.0660 
     19 N          24.9144   -1.8777   -6.4280 N.am      5 UNK        -0.4015 
     20 C          24.0615   -1.2110   -7.2183 C.2       4 UNK         0.4946 
     21 O          24.1878   -1.1132   -8.4391 O.2       4 UNK        -0.5353 
     22 CA         22.8722   -0.5194   -6.5269 C.3       4 UNK         0.0277 
     23 CB         21.6496   -1.4507   -6.4999 C.3       4 UNK        -0.1981 
     24 N          23.1757   -0.0732   -5.1630 N.am      4 UNK        -0.4209 
     25 C          24.0465    0.9015   -4.8642 C.2       3 UNK         0.4942 
     26 O          24.6599    1.5522   -5.7087 O.2       3 UNK        -0.5208 
     27 CA         24.3185    1.1587   -3.3723 C.3       3 UNK         0.0250 
     28 CB         23.2732    2.1249   -2.7928 C.3       3 UNK        -0.1990 
     29 N          24.3739   -0.0591   -2.5533 N.am      3 UNK        -0.4232 
     30 C          25.2336   -1.0698   -2.7407 C.2       2 UNK         0.4993 
     31 O          26.0260   -1.1320   -3.6852 O.2       2 UNK        -0.5286 
     32 CA         25.1663   -2.2320   -1.7407 C.3       2 UNK         0.0209 
     33 CB         24.2689   -3.3556   -2.2838 C.3       2 UNK        -0.1931 
     34 N          26.5109   -2.7600   -1.5106 N.am      2 UNK        -0.4546 
     35 C          27.3710   -2.2628   -0.6145 C.2       1 UNK         0.5154 
     36 O          27.0658   -1.4053    0.2191 O.2       1 UNK        -0.5181 
     37 C          27.2214   -1.3898   -7.1074 C.2       5 UNK         0.5014 
     38 O          27.8518   -1.3567   -8.1654 O.2       5 UNK        -0.5248 
     39 N          27.3575   -0.4840   -6.1269 N.am      6 UNK        -0.4434 
     40 CA         28.2804    0.6512   -6.1464 C.3       6 UNK         0.0363 
     41 CB         28.2046    1.4040   -4.8120 C.3       6 UNK        -0.1936 
     42 C          28.0535    1.6151   -7.3166 C.2       6 UNK         0.5081 
     43 O          29.0302    2.0722   -7.9075 O.2       6 UNK        -0.5248 
     44 N          26.7837    1.8699   -7.6595 N.am      7 UNK        -0.4718 
     45 CA         26.3726    2.6877   -8.8042 C.3       7 UNK         0.0273 
     46 CB         24.8425    2.8341   -8.7967 C.3       7 UNK        -0.1935 
     47 C          26.8521    2.1460  -10.1637 C.2       7 UNK         0.5018 
     48 O          27.0808    2.9411  -11.0762 O.2       7 UNK        -0.5186 
     49 N          27.0014    0.8191  -10.2736 N.am      8 UNK        -0.4240 
     50 CA         27.5493    0.1489  -11.4508 C.3       8 UNK         0.0235 
     51 CB         26.9065   -1.2411  -11.5951 C.3       8 UNK        -0.2000 
     52 C          29.0795    0.0378  -11.3709 C.2       8 UNK         0.4941 
     53 O          29.7574    0.3226  -12.3589 O.2       8 UNK        -0.5273 
     54 N          29.5929   -0.3991  -10.2128 N.am      9 UNK        -0.4262 
     55 CA         31.0068   -0.7147  -10.0020 C.3       9 UNK         0.0264 
     56 CB         31.1376   -1.6061   -8.7606 C.3       9 UNK        -0.1955 
     57 C          31.9288    0.5058   -9.8605 C.2       9 UNK         0.5031 
     58 O          33.0888    0.4099  -10.2639 O.2       9 UNK        -0.5390 
     59 N          31.4238    1.5982   -9.2653 N.am      10 UNK        -0.4204 
     60 CA         32.1609    2.7991   -8.8507 C.3       10 UNK         0.0237 
     61 CB         32.6823    3.5846  -10.0737 C.3       10 UNK        -0.1985 
     62 C          33.2610    2.4576   -7.8251 C.2       10 UNK         0.4970 
     63 O          34.4467    2.6495   -8.1032 O.2       10 UNK        -0.4914 
     64 N          32.8331    1.9145   -6.6754 N.am      11 UNK        -0.4285 
     65 CA         33.6784    1.4522   -5.5589 C.3       11 UNK         0.1007 
     66 C          34.6727    2.5285   -5.0389 C.2       11 UNK         0.5703 
     67 N          35.8958    2.1378   -4.7065 N.am      11 UNK        -0.7361 
     68 O          34.3275    3.6996   -4.8892 O.2       11 UNK        -0.4986 
     69 C69        32.8270    0.9180   -4.3740 C.3       12 UNK        -0.0947 
     70 S70        31.6183   -0.3568   -4.8557 S.3       12 UNK        -0.2240 
     71 C71        32.2792   -1.8651   -4.0698 C.3       12 UNK         0.0194 
     72 H72        30.2933    0.6857   -2.1003 H         1 UNK         0.0906 
     73 H73        29.6716   -0.8874   -2.5638 H         1 UNK         0.0906 
     74 H74        28.6495    0.2387   -1.6529 H         1 UNK         0.0906 
     75 H75        30.1150   -2.2239    0.8700 H         1 UNK         0.3140 
     76 H76        29.0819   -2.8759   -1.7234 H         1 UNK         0.1085 
     77 H77        28.3276   -4.3224    0.8500 H         1 UNK         0.0836 
     78 H78        29.9513   -4.4360    0.2549 H         1 UNK         0.0836 
     79 H79        30.8439   -5.8967   -1.3338 H         1 UNK         0.0731 
     80 H80        29.9841   -6.9718   -2.3998 H         1 UNK         0.0731 
     81 H81        31.6315   -3.7280   -2.1752 H         1 UNK         0.1312 
     82 H82        30.8468   -2.6813   -6.2542 H         1 UNK         0.1406 
     83 H83        28.9458   -6.1042   -4.5271 H         1 UNK         0.1631 
     84 H84        29.6049   -5.4879   -7.3736 H         1 UNK         0.0717 
     85 H85        29.2041   -3.7947   -7.5206 H         1 UNK         0.0717 
     86 H86        25.8374   -3.9339   -5.2782 H         1 UNK         0.0934 
     87 H87        27.3869   -3.1794   -5.1580 H         1 UNK         0.0934 
     88 H88        25.9675   -2.9574   -7.8409 H         1 UNK         0.0739 
     89 H89        24.7687   -1.8455   -5.4288 H         1 UNK         0.3093 
     90 H90        22.6184    0.3624   -7.1196 H         1 UNK         0.0818 
     91 H91        20.7748   -0.9459   -6.0895 H         1 UNK         0.0819 
     92 H92        21.3882   -1.7790   -7.5070 H         1 UNK         0.0819 
     93 H93        21.8334   -2.3452   -5.9034 H         1 UNK         0.0819 
     94 H94        22.7065   -0.5491   -4.4061 H         1 UNK         0.3041 
     95 H95        25.2962    1.6388   -3.3006 H         1 UNK         0.0784 
     96 H96        23.2283    3.0461   -3.3759 H         1 UNK         0.0793 
     97 H97        22.2730    1.6898   -2.7937 H         1 UNK         0.0793 
     98 H98        23.5170    2.4058   -1.7680 H         1 UNK         0.0793 
     99 H99        23.7433   -0.0966   -1.7648 H         1 UNK         0.3024 
    100 H100       24.7474   -1.8732   -0.7974 H         1 UNK         0.1171 
    101 H101       23.2523   -2.9989   -2.4548 H         1 UNK         0.0786 
    102 H102       24.2046   -4.1838   -1.5777 H         1 UNK         0.0786 
    103 H103       24.6392   -3.7531   -3.2285 H         1 UNK         0.0786 
    104 H104       26.8386   -3.4573   -2.1642 H         1 UNK         0.2977 
    105 H105       26.8164   -0.6124   -5.2735 H         1 UNK         0.3127 
    106 H106       29.2809    0.2374   -6.2608 H         1 UNK         0.0770 
    107 H107       27.2551    1.9267   -4.6965 H         1 UNK         0.0814 
    108 H108       28.9999    2.1467   -4.7378 H         1 UNK         0.0814 
    109 H109       28.3123    0.7221   -3.9722 H         1 UNK         0.0814 
    110 H110       26.0408    1.5161   -7.0613 H         1 UNK         0.2983 
    111 H111       26.8150    3.6779   -8.6763 H         1 UNK         0.0947 
    112 H112       24.5020    3.4432   -9.6352 H         1 UNK         0.0806 
    113 H113       24.4954    3.3181   -7.8836 H         1 UNK         0.0806 
    114 H114       24.3461    1.8654   -8.8711 H         1 UNK         0.0806 
    115 H115       26.8182    0.2430   -9.4618 H         1 UNK         0.3000 
    116 H116       27.3010    0.7243  -12.3456 H         1 UNK         0.0850 
    117 H117       27.2890   -1.7574  -12.4766 H         1 UNK         0.0810 
    118 H118       25.8247   -1.1657  -11.7071 H         1 UNK         0.0810 
    119 H119       27.1070   -1.8770  -10.7321 H         1 UNK         0.0810 
    120 H120       28.9545   -0.6480   -9.4588 H         1 UNK         0.3040 
    121 H121       31.3560   -1.2874  -10.8641 H         1 UNK         0.0766 
    122 H122       32.1806   -1.8524   -8.5559 H         1 UNK         0.0812 
    123 H123       30.6031   -2.5452   -8.8963 H         1 UNK         0.0812 
    124 H124       30.7370   -1.1082   -7.8774 H         1 UNK         0.0812 
    125 H125       30.4553    1.5737   -8.9472 H         1 UNK         0.3205 
    126 H126       31.4431    3.4398   -8.3359 H         1 UNK         0.0754 
    127 H127       33.1489    4.5202   -9.7631 H         1 UNK         0.0769 
    128 H128       31.8702    3.8372  -10.7555 H         1 UNK         0.0769 
    129 H129       33.4282    3.0224  -10.6360 H         1 UNK         0.0769 
    130 H130       31.8410    1.7892   -6.5430 H         1 UNK         0.2981 
    131 H131       34.2643    0.6189   -5.9514 H         1 UNK         0.0541 
    132 H132       36.1846    1.1777   -4.8124 H         1 UNK         0.3459 
    133 H133       36.5476    2.8199   -4.3514 H         1 UNK         0.3459 
    134 H134       32.2690    1.7342   -3.9110 H         1 UNK         0.0612 
    135 H135       33.4736    0.5146   -3.5925 H         1 UNK         0.0612 
    136 H136       33.2382   -2.1155   -4.5247 H         1 UNK         0.0624 
    137 H137       32.4712   -1.6519   -3.0170 H         1 UNK         0.0624 
@<TRIPOS>BOND
     1    1    2 1    
     2    1   72 1    
     3    1   73 1    
     4    1   74 1    
     5    2    3 2    
     6    2    4 am   BACKBONE|DICT|INTERRES
     7    4    5 1    
     8    4   75 1    
     9    5    6 1    
    10    5   35 1    
    11    5   76 1    
    12    6    7 1    
    13    6   77 1    
    14    6   78 1    
    15    7    8 1    
    16    8    9 1    
    17    8   79 1    
    18    8   80 1    
    19    9   10 ar   
    20    9   14 ar   
    21   10   11 ar   
    22   10   81 1    
    23   11   12 ar   
    24   11   71 1    
    25   12   13 ar   
    26   12   82 1    
    27   13   14 ar   
    28   13   15 1    
    29   14   83 1    
    30   15   16 1    
    31   15   84 1    
    32   15   85 1    
    33   16   17 1    
    34   17   18 1    
    35   17   86 1    
    36   17   87 1    
    37   18   19 1    
    38   18   37 1    
    39   18   88 1    
    40   19   20 am   BACKBONE|DICT|INTERRES
    41   19   89 1    
    42   20   21 2    
    43   20   22 1    
    44   22   23 1    
    45   22   24 1    
    46   22   90 1    
    47   23   91 1    
    48   23   92 1    
    49   23   93 1    
    50   24   25 am   BACKBONE|DICT|INTERRES
    51   24   94 1    
    52   25   26 2    
    53   25   27 1    
    54   27   28 1    
    55   27   29 1    
    56   27   95 1    
    57   28   96 1    
    58   28   97 1    
    59   28   98 1    
    60   29   30 am   BACKBONE|DICT|INTERRES
    61   29   99 1    
    62   30   31 2    
    63   30   32 1    
    64   32   33 1    
    65   32   34 1    
    66   32  100 1    
    67   33  101 1    
    68   33  102 1    
    69   33  103 1    
    70   34   35 am   BACKBONE|DICT|INTERRES
    71   34  104 1    
    72   35   36 2    
    73   37   38 2    
    74   37   39 am   BACKBONE|DICT|INTERRES
    75   39   40 1    
    76   39  105 1    
    77   40   41 1    
    78   40   42 1    
    79   40  106 1    
    80   41  107 1    
    81   41  108 1    
    82   41  109 1    
    83   42   43 2    
    84   42   44 am   BACKBONE|DICT|INTERRES
    85   44   45 1    
    86   44  110 1    
    87   45   46 1    
    88   45   47 1    
    89   45  111 1    
    90   46  112 1    
    91   46  113 1    
    92   46  114 1    
    93   47   48 2    
    94   47   49 am   BACKBONE|DICT|INTERRES
    95   49   50 1    
    96   49  115 1    
    97   50   51 1    
    98   50   52 1    
    99   50  116 1    
   100   51  117 1    
   101   51  118 1    
   102   51  119 1    
   103   52   53 2    
   104   52   54 am   BACKBONE|DICT|INTERRES
   105   54   55 1    
   106   54  120 1    
   107   55   56 1    
   108   55   57 1    
   109   55  121 1    
   110   56  122 1    
   111   56  123 1    
   112   56  124 1    
   113   57   58 2    
   114   57   59 am   BACKBONE|DICT|INTERRES
   115   59   60 1    
   116   59  125 1    
   117   60   61 1    
   118   60   62 1    
   119   60  126 1    
   120   61  127 1    
   121   61  128 1    
   122   61  129 1    
   123   62   63 2    
   124   62   64 am   BACKBONE|DICT|INTERRES
   125   64   65 1    
   126   64  130 1    
   127   65   66 1    
   128   65   69 1    
   129   65  131 1    
   130   66   67 am   BACKBONE|DICT|INTERRES
   131   66   68 2    
   132   67  132 1    
   133   67  133 1    
   134   69   70 1    
   135   69  134 1    
   136   69  135 1    
   137   70   71 1    
   138   71  136 1    
   139   71  137 1    
@<TRIPOS>SUBSTRUCTURE
     1 UNK         1 GROUP             0       ****    0 ROOT    
