@<TRIPOS>MOLECULE
3R137
137   139    1
SMALL
USER_CHARGES


@<TRIPOS>ATOM
      1 CA         23.3687   -3.1852    0.1250 C.3       0 UNK        -0.2020 
      2 C          24.8214   -2.7439    0.0382 C.2       0 UNK         0.4855 
      3 O          25.1181   -1.5664    0.2412 O.2       0 UNK        -0.5197 
      4 N          25.7364   -3.6723   -0.2697 N.am      1 UNK        -0.4892 
      5 CA         27.1559   -3.3806   -0.4935 C.3       1 UNK         0.0835 
      6 C6         28.0038   -4.6724   -0.5140 C.3       12 UNK        -0.0855 
      7 S7         29.7657   -4.3447   -0.1680 S.3       12 UNK        -0.2931 
      8 C8         30.5878   -5.2284   -1.5296 C.3       12 UNK         0.0378 
      9 C9         30.7382   -4.3693   -2.7779 C.ar      12 UNK        -0.0802 
     10 C10        31.9197   -3.6521   -2.9916 C.ar      12 UNK        -0.0944 
     11 C11        32.1160   -2.9336   -4.1752 C.ar      12 UNK        -0.0787 
     12 C12        31.1076   -2.9287   -5.1449 C.ar      12 UNK        -0.0862 
     13 C13        29.9090   -3.6176   -4.9328 C.ar      12 UNK        -0.0733 
     14 C14        29.7317   -4.3389   -3.7483 C.ar      12 UNK        -0.0832 
     15 C15        28.8308   -3.6274   -6.0071 C.3       12 UNK         0.0240 
     16 S16        28.2352   -1.9531   -6.3915 S.3       12 UNK        -0.2522 
     17 C17        27.0740   -2.2998   -7.7522 C.3       12 UNK        -0.0967 
     18 CA         25.6396   -1.7557   -7.5335 C.3       5 UNK         0.0660 
     19 N          25.1164   -2.0360   -6.1919 N.am      5 UNK        -0.4015 
     20 C          23.8218   -2.2391   -5.9088 C.2       4 UNK         0.4946 
     21 O          22.9297   -2.2816   -6.7571 O.2       4 UNK        -0.5353 
     22 CA         23.4551   -2.4135   -4.4262 C.3       4 UNK         0.0277 
     23 CB         23.7675   -3.8402   -3.9453 C.3       4 UNK        -0.1981 
     24 N          24.1371   -1.4298   -3.5815 N.am      4 UNK        -0.4209 
     25 C          23.7735   -0.1379   -3.5096 C.2       3 UNK         0.4942 
     26 O          22.7845    0.3190   -4.0831 O.2       3 UNK        -0.5208 
     27 CA         24.6388    0.8219   -2.6703 C.3       3 UNK         0.0250 
     28 CB         23.9154    1.2138   -1.3717 C.3       3 UNK        -0.1990 
     29 N          25.9696    0.2951   -2.3564 N.am      3 UNK        -0.4232 
     30 C          26.9509    0.1638   -3.2619 C.2       2 UNK         0.4993 
     31 O          26.8250    0.5039   -4.4358 O.2       2 UNK        -0.5286 
     32 CA         28.2635   -0.5034   -2.8076 C.3       2 UNK         0.0209 
     33 CB         29.3028    0.5545   -2.4073 C.3       2 UNK        -0.1931 
     34 N          28.0879   -1.4589   -1.7095 N.am      2 UNK        -0.4546 
     35 C          27.3202   -2.5540   -1.7836 C.2       1 UNK         0.5154 
     36 O          26.7119   -2.8922   -2.8026 O.2       1 UNK        -0.5181 
     37 C          25.4900   -0.2680   -7.9186 C.2       5 UNK         0.5014 
     38 O          25.3088    0.0186   -9.1039 O.2       5 UNK        -0.5248 
     39 N          25.5186    0.6419   -6.9309 N.am      6 UNK        -0.4434 
     40 CA         25.2088    2.0729   -7.0231 C.3       6 UNK         0.0363 
     41 CB         23.6930    2.2789   -7.2402 C.3       6 UNK        -0.1936 
     42 C          26.0888    2.7966   -8.0567 C.2       6 UNK         0.5081 
     43 O          27.2651    3.0307   -7.7868 O.2       6 UNK        -0.5248 
     44 N          25.5305    3.1123   -9.2331 N.am      7 UNK        -0.4718 
     45 CA         26.2393    3.7329  -10.3574 C.3       7 UNK         0.0273 
     46 CB         25.2292    4.0677  -11.4665 C.3       7 UNK        -0.1935 
     47 C          27.3931    2.8787  -10.9186 C.2       7 UNK         0.5018 
     48 O          28.3235    3.4394  -11.4985 O.2       7 UNK        -0.5186 
     49 N          27.3256    1.5536  -10.7266 N.am      8 UNK        -0.4240 
     50 CA         28.3644    0.6026  -11.1235 C.3       8 UNK         0.0235 
     51 CB         27.6962   -0.7075  -11.5773 C.3       8 UNK        -0.2000 
     52 C          29.4190    0.3529  -10.0267 C.2       8 UNK         0.4941 
     53 O          30.3301   -0.4439  -10.2615 O.2       8 UNK        -0.5273 
     54 N          29.3213    1.0173   -8.8628 N.am      9 UNK        -0.4262 
     55 CA         30.2616    0.8868   -7.7413 C.3       9 UNK         0.0264 
     56 CB         29.5899    1.3744   -6.4449 C.3       9 UNK        -0.1955 
     57 C          31.5975    1.6109   -8.0027 C.2       9 UNK         0.5031 
     58 O          31.9496    2.5445   -7.2783 O.2       9 UNK        -0.5390 
     59 N          32.3180    1.1766   -9.0441 N.am      10 UNK        -0.4204 
     60 CA         33.6563    1.6600   -9.3911 C.3       10 UNK         0.0237 
     61 CB         34.0348    1.1755  -10.8004 C.3       10 UNK        -0.1985 
     62 C          34.7055    1.2257   -8.3544 C.2       10 UNK         0.4970 
     63 O          35.5148    2.0514   -7.9305 O.2       10 UNK        -0.4914 
     64 N          34.6448   -0.0548   -7.9596 N.am      11 UNK        -0.4285 
     65 CA         35.4524   -0.6864   -6.9002 C.3       11 UNK         0.1007 
     66 C          36.9949   -0.6756   -7.1394 C.2       11 UNK         0.5703 
     67 N          37.4665   -0.5368   -8.3730 N.am      11 UNK        -0.7361 
     68 O          37.7787   -0.8316   -6.2056 O.2       11 UNK        -0.4986 
     69 C69        35.0436   -0.2041   -5.4764 C.3       12 UNK        -0.0947 
     70 S70        33.2919   -0.5543   -5.0957 S.3       12 UNK        -0.2240 
     71 C71        33.4519   -2.2428   -4.4278 C.3       12 UNK         0.0194 
     72 H72        22.7690   -2.6386   -0.6026 H         1 UNK         0.0906 
     73 H73        23.2531   -4.2509   -0.0713 H         1 UNK         0.0906 
     74 H74        22.9726   -2.9775    1.1185 H         1 UNK         0.0906 
     75 H75        25.4435   -4.6204   -0.4581 H         1 UNK         0.3140 
     76 H76        27.4857   -2.7720    0.3522 H         1 UNK         0.1085 
     77 H77        27.6587   -5.3532    0.2661 H         1 UNK         0.0836 
     78 H78        27.8765   -5.2140   -1.4526 H         1 UNK         0.0836 
     79 H79        30.0490   -6.1485   -1.7616 H         1 UNK         0.0731 
     80 H80        31.5731   -5.5457   -1.1845 H         1 UNK         0.0731 
     81 H81        32.7037   -3.6842   -2.2471 H         1 UNK         0.1312 
     82 H82        31.2559   -2.3941   -6.0731 H         1 UNK         0.1406 
     83 H83        28.8172   -4.8940   -3.5925 H         1 UNK         0.1631 
     84 H84        27.9816   -4.2398   -5.6992 H         1 UNK         0.0717 
     85 H85        29.2375   -4.0829   -6.9111 H         1 UNK         0.0717 
     86 H86        27.5082   -1.9154   -8.6754 H         1 UNK         0.0934 
     87 H87        27.0156   -3.3797   -7.8960 H         1 UNK         0.0934 
     88 H88        25.0095   -2.2932   -8.2461 H         1 UNK         0.0739 
     89 H89        25.7926   -2.0208   -5.4405 H         1 UNK         0.3093 
     90 H90        22.3778   -2.2608   -4.3278 H         1 UNK         0.0818 
     91 H91        24.8169   -4.1003   -4.0845 H         1 UNK         0.0819 
     92 H92        23.5268   -3.9675   -2.8903 H         1 UNK         0.0819 
     93 H93        23.1797   -4.5713   -4.5018 H         1 UNK         0.0819 
     94 H94        24.9779   -1.7399   -3.1065 H         1 UNK         0.3041 
     95 H95        24.7722    1.7301   -3.2626 H         1 UNK         0.0784 
     96 H96        22.9724    1.7165   -1.5907 H         1 UNK         0.0793 
     97 H97        23.6798    0.3443   -0.7587 H         1 UNK         0.0793 
     98 H98        24.5142    1.8988   -0.7712 H         1 UNK         0.0793 
     99 H99        26.1175   -0.0445   -1.4147 H         1 UNK         0.3024 
    100 H100       28.6565   -1.0571   -3.6625 H         1 UNK         0.1171 
    101 H101       30.2735    0.0990   -2.2089 H         1 UNK         0.0786 
    102 H102       29.4469    1.2816   -3.2077 H         1 UNK         0.0786 
    103 H103       28.9978    1.1060   -1.5173 H         1 UNK         0.0786 
    104 H104       28.5653   -1.2508   -0.8441 H         1 UNK         0.2977 
    105 H105       25.8379    0.3461   -6.0102 H         1 UNK         0.3127 
    106 H106       25.4637    2.5034   -6.0533 H         1 UNK         0.0770 
    107 H107       23.3331    1.7986   -8.1506 H         1 UNK         0.0814 
    108 H108       23.4433    3.3391   -7.2999 H         1 UNK         0.0814 
    109 H109       23.1237    1.8642   -6.4082 H         1 UNK         0.0814 
    110 H110       24.5675    2.8504   -9.3885 H         1 UNK         0.2983 
    111 H111       26.6771    4.6664   -9.9970 H         1 UNK         0.0947 
    112 H112       25.7216    4.5568  -12.3083 H         1 UNK         0.0806 
    113 H113       24.4552    4.7467  -11.1082 H         1 UNK         0.0806 
    114 H114       24.7404    3.1715  -11.8510 H         1 UNK         0.0806 
    115 H115       26.5297    1.1722  -10.2214 H         1 UNK         0.3000 
    116 H116       28.9082    1.0020  -11.9823 H         1 UNK         0.0850 
    117 H117       28.4383   -1.4513  -11.8706 H         1 UNK         0.0810 
    118 H118       27.0533   -0.5394  -12.4414 H         1 UNK         0.0810 
    119 H119       27.0832   -1.1476  -10.7927 H         1 UNK         0.0810 
    120 H120       28.5718    1.6892   -8.7346 H         1 UNK         0.3040 
    121 H121       30.4885   -0.1733   -7.6089 H         1 UNK         0.0766 
    122 H122       28.6110    0.9195   -6.3059 H         1 UNK         0.0812 
    123 H123       29.4510    2.4557   -6.4378 H         1 UNK         0.0812 
    124 H124       30.1968    1.1168   -5.5764 H         1 UNK         0.0812 
    125 H125       31.9089    0.4421   -9.6173 H         1 UNK         0.3205 
    126 H126       33.6302    2.7519   -9.4026 H         1 UNK         0.0754 
    127 H127       35.0269    1.5317  -11.0818 H         1 UNK         0.0769 
    128 H128       33.3342    1.5497  -11.5473 H         1 UNK         0.0769 
    129 H129       34.0457    0.0871  -10.8693 H         1 UNK         0.0769 
    130 H130       33.9487   -0.6494   -8.3831 H         1 UNK         0.2981 
    131 H131       35.2013   -1.7457   -6.9560 H         1 UNK         0.0541 
    132 H132       38.4629   -0.5420   -8.5235 H         1 UNK         0.3459 
    133 H133       36.8378   -0.4178   -9.1507 H         1 UNK         0.3459 
    134 H134       35.2109    0.8693   -5.3758 H         1 UNK         0.0612 
    135 H135       35.6575   -0.6771   -4.7081 H         1 UNK         0.0612 
    136 H136       34.0372   -2.1935   -3.5083 H         1 UNK         0.0624 
    137 H137       34.0225   -2.8538   -5.1279 H         1 UNK         0.0624 
@<TRIPOS>BOND
     1    1    2 1    
     2    1   72 1    
     3    1   73 1    
     4    1   74 1    
     5    2    3 2    
     6    2    4 am   BACKBONE|DICT|INTERRES
     7    4    5 1    
     8    4   75 1    
     9    5    6 1    
    10    5   35 1    
    11    5   76 1    
    12    6    7 1    
    13    6   77 1    
    14    6   78 1    
    15    7    8 1    
    16    8    9 1    
    17    8   79 1    
    18    8   80 1    
    19    9   10 ar   
    20    9   14 ar   
    21   10   11 ar   
    22   10   81 1    
    23   11   12 ar   
    24   11   71 1    
    25   12   13 ar   
    26   12   82 1    
    27   13   14 ar   
    28   13   15 1    
    29   14   83 1    
    30   15   16 1    
    31   15   84 1    
    32   15   85 1    
    33   16   17 1    
    34   17   18 1    
    35   17   86 1    
    36   17   87 1    
    37   18   19 1    
    38   18   37 1    
    39   18   88 1    
    40   19   20 am   BACKBONE|DICT|INTERRES
    41   19   89 1    
    42   20   21 2    
    43   20   22 1    
    44   22   23 1    
    45   22   24 1    
    46   22   90 1    
    47   23   91 1    
    48   23   92 1    
    49   23   93 1    
    50   24   25 am   BACKBONE|DICT|INTERRES
    51   24   94 1    
    52   25   26 2    
    53   25   27 1    
    54   27   28 1    
    55   27   29 1    
    56   27   95 1    
    57   28   96 1    
    58   28   97 1    
    59   28   98 1    
    60   29   30 am   BACKBONE|DICT|INTERRES
    61   29   99 1    
    62   30   31 2    
    63   30   32 1    
    64   32   33 1    
    65   32   34 1    
    66   32  100 1    
    67   33  101 1    
    68   33  102 1    
    69   33  103 1    
    70   34   35 am   BACKBONE|DICT|INTERRES
    71   34  104 1    
    72   35   36 2    
    73   37   38 2    
    74   37   39 am   BACKBONE|DICT|INTERRES
    75   39   40 1    
    76   39  105 1    
    77   40   41 1    
    78   40   42 1    
    79   40  106 1    
    80   41  107 1    
    81   41  108 1    
    82   41  109 1    
    83   42   43 2    
    84   42   44 am   BACKBONE|DICT|INTERRES
    85   44   45 1    
    86   44  110 1    
    87   45   46 1    
    88   45   47 1    
    89   45  111 1    
    90   46  112 1    
    91   46  113 1    
    92   46  114 1    
    93   47   48 2    
    94   47   49 am   BACKBONE|DICT|INTERRES
    95   49   50 1    
    96   49  115 1    
    97   50   51 1    
    98   50   52 1    
    99   50  116 1    
   100   51  117 1    
   101   51  118 1    
   102   51  119 1    
   103   52   53 2    
   104   52   54 am   BACKBONE|DICT|INTERRES
   105   54   55 1    
   106   54  120 1    
   107   55   56 1    
   108   55   57 1    
   109   55  121 1    
   110   56  122 1    
   111   56  123 1    
   112   56  124 1    
   113   57   58 2    
   114   57   59 am   BACKBONE|DICT|INTERRES
   115   59   60 1    
   116   59  125 1    
   117   60   61 1    
   118   60   62 1    
   119   60  126 1    
   120   61  127 1    
   121   61  128 1    
   122   61  129 1    
   123   62   63 2    
   124   62   64 am   BACKBONE|DICT|INTERRES
   125   64   65 1    
   126   64  130 1    
   127   65   66 1    
   128   65   69 1    
   129   65  131 1    
   130   66   67 am   BACKBONE|DICT|INTERRES
   131   66   68 2    
   132   67  132 1    
   133   67  133 1    
   134   69   70 1    
   135   69  134 1    
   136   69  135 1    
   137   70   71 1    
   138   71  136 1    
   139   71  137 1    
@<TRIPOS>SUBSTRUCTURE
     1 UNK         1 GROUP             0       ****    0 ROOT    
