@<TRIPOS>MOLECULE
3R137
137   139    1
SMALL
USER_CHARGES


@<TRIPOS>ATOM
      1 CA         27.1584    1.0897    1.9249 C.3       0 UNK        -0.2020 
      2 C          27.2575   -0.3792    1.5397 C.2       0 UNK         0.4855 
      3 O          26.9261   -1.2437    2.3515 O.2       0 UNK        -0.5197 
      4 N          27.7229   -0.6524    0.3133 N.am      1 UNK        -0.4892 
      5 CA         27.8545   -1.9723   -0.3183 C.3       1 UNK         0.0835 
      6 C6         28.6753   -2.9857    0.5260 C.3       12 UNK        -0.0855 
      7 S7         29.5345   -4.2478   -0.4780 S.3       12 UNK        -0.2931 
      8 C8         31.1373   -3.4526   -0.8330 C.3       12 UNK         0.0378 
      9 C9         31.0566   -2.5546   -2.0597 C.ar      12 UNK        -0.0802 
     10 C10        31.1093   -3.1177   -3.3391 C.ar      12 UNK        -0.0944 
     11 C11        31.0249   -2.3087   -4.4759 C.ar      12 UNK        -0.0787 
     12 C12        30.8715   -0.9288   -4.3281 C.ar      12 UNK        -0.0862 
     13 C13        30.8075   -0.3547   -3.0549 C.ar      12 UNK        -0.0733 
     14 C14        30.9251   -1.1685   -1.9233 C.ar      12 UNK        -0.0832 
     15 C15        30.5760    1.1425   -2.9099 C.3       12 UNK         0.0240 
     16 S16        28.9109    1.5451   -2.2741 S.3       12 UNK        -0.2522 
     17 C17        27.8027    0.4482   -3.2252 C.3       12 UNK        -0.0967 
     18 CA         27.6912    0.7742   -4.7346 C.3       5 UNK         0.0660 
     19 N          27.2582   -0.4043   -5.4875 N.am      5 UNK        -0.4015 
     20 C          27.3819   -0.5698   -6.8116 C.2       4 UNK         0.4946 
     21 O          27.9358    0.2434   -7.5493 O.2       4 UNK        -0.5353 
     22 CA         26.7609   -1.8393   -7.4302 C.3       4 UNK         0.0277 
     23 CB         27.8062   -2.9629   -7.5102 C.3       4 UNK        -0.1981 
     24 N          25.5869   -2.3380   -6.7087 N.am      4 UNK        -0.4209 
     25 C          24.4530   -1.6531   -6.5029 C.2       3 UNK         0.4942 
     26 O          24.2286   -0.5478   -6.9948 O.2       3 UNK        -0.5208 
     27 CA         23.4295   -2.2651   -5.5242 C.3       3 UNK         0.0250 
     28 CB         22.3473   -3.0342   -6.2979 C.3       3 UNK        -0.1990 
     29 N          24.0024   -3.1384   -4.4849 N.am      3 UNK        -0.4232 
     30 C          24.9880   -2.8000   -3.6391 C.2       2 UNK         0.4993 
     31 O          25.5494   -1.7025   -3.6727 O.2       2 UNK        -0.5286 
     32 CA         25.4604   -3.8790   -2.6423 C.3       2 UNK         0.0209 
     33 CB         25.9082   -5.1580   -3.3748 C.3       2 UNK        -0.1931 
     34 N          26.5855   -3.4043   -1.8316 N.am      2 UNK        -0.4546 
     35 C          26.5029   -2.5249   -0.8255 C.2       1 UNK         0.5154 
     36 O          25.4326   -2.1371   -0.3490 O.2       1 UNK        -0.5181 
     37 C          26.7572    1.9690   -4.9960 C.2       5 UNK         0.5014 
     38 O          27.2421    3.0807   -5.2060 O.2       5 UNK        -0.5248 
     39 N          25.4398    1.7126   -5.0281 N.am      6 UNK        -0.4434 
     40 CA         24.4096    2.7014   -5.3623 C.3       6 UNK         0.0363 
     41 CB         23.0187    2.1360   -5.0322 C.3       6 UNK        -0.1936 
     42 C          24.4864    3.1531   -6.8312 C.2       6 UNK         0.5081 
     43 O          24.3015    4.3368   -7.1137 O.2       6 UNK        -0.5248 
     44 N          24.7995    2.2111   -7.7317 N.am      7 UNK        -0.4718 
     45 CA         25.0792    2.4638   -9.1484 C.3       7 UNK         0.0273 
     46 CB         25.0145    1.1297   -9.9098 C.3       7 UNK        -0.1935 
     47 C          26.4371    3.1508   -9.3988 C.2       7 UNK         0.5018 
     48 O          26.6441    3.6704  -10.4960 O.2       7 UNK        -0.5186 
     49 N          27.3303    3.1237   -8.3971 N.am      8 UNK        -0.4240 
     50 CA         28.7160    3.6068   -8.4058 C.3       8 UNK         0.0235 
     51 CB         28.7625    5.1446   -8.5301 C.3       8 UNK        -0.2000 
     52 C          29.5867    2.8833   -9.4522 C.2       8 UNK         0.4941 
     53 O          30.3719    3.5233  -10.1557 O.2       8 UNK        -0.5273 
     54 N          29.4186    1.5584   -9.5469 N.am      9 UNK        -0.4262 
     55 CA         30.1565    0.6907  -10.4607 C.3       9 UNK         0.0264 
     56 CB         29.3583   -0.6048  -10.6753 C.3       9 UNK        -0.1955 
     57 C          31.5540    0.3768   -9.9079 C.2       9 UNK         0.5031 
     58 O          31.7056    0.1505   -8.7040 O.2       9 UNK        -0.5390 
     59 N          32.5449    0.3216  -10.8052 N.am      10 UNK        -0.4204 
     60 CA         33.9298   -0.0400  -10.5022 C.3       10 UNK         0.0237 
     61 CB         34.8556    0.5928  -11.5586 C.3       10 UNK        -0.1985 
     62 C          34.0798   -1.5695  -10.4250 C.2       10 UNK         0.4970 
     63 O          34.6171   -2.1839  -11.3485 O.2       10 UNK        -0.4914 
     64 N          33.5673   -2.1572   -9.3381 N.am      11 UNK        -0.4285 
     65 CA         33.6049   -3.6027   -9.0627 C.3       11 UNK         0.1007 
     66 C          35.0134   -4.1950   -8.7542 C.2       11 UNK         0.5703 
     67 N          36.0357   -3.3875   -8.4957 N.am      11 UNK        -0.7361 
     68 O          35.1821   -5.4123   -8.7643 O.2       11 UNK        -0.4986 
     69 C69        32.5529   -4.0073   -7.9964 C.3       12 UNK        -0.0947 
     70 S70        32.8071   -3.2092   -6.3735 S.3       12 UNK        -0.2240 
     71 C71        31.0883   -2.9240   -5.8637 C.3       12 UNK         0.0194 
     72 H72        27.7645    1.2878    2.8086 H         1 UNK         0.0906 
     73 H73        27.5008    1.7469    1.1254 H         1 UNK         0.0906 
     74 H74        26.1250    1.3473    2.1557 H         1 UNK         0.0906 
     75 H75        27.9545    0.1241   -0.2925 H         1 UNK         0.3140 
     76 H76        28.4289   -1.7660   -1.2174 H         1 UNK         0.1085 
     77 H77        29.4256   -2.4611    1.1194 H         1 UNK         0.0836 
     78 H78        28.0349   -3.4915    1.2511 H         1 UNK         0.0836 
     79 H79        31.8805   -4.2318   -1.0089 H         1 UNK         0.0731 
     80 H80        31.4871   -2.8965    0.0380 H         1 UNK         0.0731 
     81 H81        31.2169   -4.1883   -3.4505 H         1 UNK         0.1312 
     82 H82        30.7908   -0.3049   -5.2083 H         1 UNK         0.1406 
     83 H83        30.8768   -0.7245   -0.9379 H         1 UNK         0.1631 
     84 H84        30.7193    1.6490   -3.8655 H         1 UNK         0.0717 
     85 H85        31.3225    1.5601   -2.2329 H         1 UNK         0.0717 
     86 H86        28.1583   -0.5739   -3.1040 H         1 UNK         0.0934 
     87 H87        26.8205    0.4591   -2.7480 H         1 UNK         0.0934 
     88 H88        28.6800    1.0452   -5.1083 H         1 UNK         0.0739 
     89 H89        26.7312   -1.0899   -4.9510 H         1 UNK         0.3093 
     90 H90        26.4459   -1.5888   -8.4448 H         1 UNK         0.0818 
     91 H91        28.1185   -3.2930   -6.5188 H         1 UNK         0.0819 
     92 H92        27.4168   -3.8293   -8.0451 H         1 UNK         0.0819 
     93 H93        28.6994   -2.6349   -8.0413 H         1 UNK         0.0819 
     94 H94        25.6749   -3.2431   -6.2711 H         1 UNK         0.3041 
     95 H95        22.9498   -1.4305   -5.0089 H         1 UNK         0.0784 
     96 H96        21.8888   -2.4023   -7.0603 H         1 UNK         0.0793 
     97 H97        22.7570   -3.9096   -6.8035 H         1 UNK         0.0793 
     98 H98        21.5480   -3.3698   -5.6369 H         1 UNK         0.0793 
     99 H99        23.5940   -4.0588   -4.4042 H         1 UNK         0.3024 
    100 H100       24.6241   -4.1156   -1.9806 H         1 UNK         0.1171 
    101 H101       26.2794   -5.9046   -2.6720 H         1 UNK         0.0786 
    102 H102       25.0844   -5.6213   -3.9185 H         1 UNK         0.0786 
    103 H103       26.7035   -4.9553   -4.0936 H         1 UNK         0.0786 
    104 H104       27.5063   -3.6790   -2.1441 H         1 UNK         0.2977 
    105 H105       25.1274    0.7644   -4.8717 H         1 UNK         0.3127 
    106 H106       24.5757    3.5812   -4.7367 H         1 UNK         0.0770 
    107 H107       22.7845    1.2544   -5.6294 H         1 UNK         0.0814 
    108 H108       22.2429    2.8766   -5.2308 H         1 UNK         0.0814 
    109 H109       22.9407    1.8604   -3.9804 H         1 UNK         0.0814 
    110 H110       24.8354    1.2423   -7.4238 H         1 UNK         0.2983 
    111 H111       24.3012    3.1234   -9.5390 H         1 UNK         0.0947 
    112 H112       25.1464    1.2842  -10.9816 H         1 UNK         0.0806 
    113 H113       24.0530    0.6356   -9.7683 H         1 UNK         0.0806 
    114 H114       25.7959    0.4439   -9.5818 H         1 UNK         0.0806 
    115 H115       27.0495    2.6529   -7.5473 H         1 UNK         0.3000 
    116 H116       29.1330    3.3424   -7.4327 H         1 UNK         0.0850 
    117 H117       29.7815    5.5149   -8.4125 H         1 UNK         0.0810 
    118 H118       28.1541    5.6212   -7.7614 H         1 UNK         0.0810 
    119 H119       28.4035    5.4843   -9.5020 H         1 UNK         0.0810 
    120 H120       28.8161    1.0945   -8.8666 H         1 UNK         0.3040 
    121 H121       30.2543    1.1994  -11.4224 H         1 UNK         0.0766 
    122 H122       28.3652   -0.3980  -11.0746 H         1 UNK         0.0812 
    123 H123       29.2355   -1.1551   -9.7432 H         1 UNK         0.0812 
    124 H124       29.8631   -1.2655  -11.3812 H         1 UNK         0.0812 
    125 H125       32.3272    0.4807  -11.7788 H         1 UNK         0.3205 
    126 H126       34.2068    0.3730   -9.5294 H         1 UNK         0.0754 
    127 H127       35.8991    0.3423  -11.3624 H         1 UNK         0.0769 
    128 H128       34.7784    1.6803  -11.5513 H         1 UNK         0.0769 
    129 H129       34.6211    0.2475  -12.5664 H         1 UNK         0.0769 
    130 H130       33.1014   -1.5797   -8.6484 H         1 UNK         0.2981 
    131 H131       33.2984   -4.0920   -9.9893 H         1 UNK         0.0541 
    132 H132       35.9053   -2.3895   -8.4759 H         1 UNK         0.3459 
    133 H133       36.9421   -3.7839   -8.3038 H         1 UNK         0.3459 
    134 H134       31.5581   -3.7524   -8.3652 H         1 UNK         0.0612 
    135 H135       32.5436   -5.0892   -7.8521 H         1 UNK         0.0612 
    136 H136       30.6067   -2.2679   -6.5901 H         1 UNK         0.0624 
    137 H137       30.5426   -3.8686   -5.8778 H         1 UNK         0.0624 
@<TRIPOS>BOND
     1    1    2 1    
     2    1   72 1    
     3    1   73 1    
     4    1   74 1    
     5    2    3 2    
     6    2    4 am   BACKBONE|DICT|INTERRES
     7    4    5 1    
     8    4   75 1    
     9    5    6 1    
    10    5   35 1    
    11    5   76 1    
    12    6    7 1    
    13    6   77 1    
    14    6   78 1    
    15    7    8 1    
    16    8    9 1    
    17    8   79 1    
    18    8   80 1    
    19    9   10 ar   
    20    9   14 ar   
    21   10   11 ar   
    22   10   81 1    
    23   11   12 ar   
    24   11   71 1    
    25   12   13 ar   
    26   12   82 1    
    27   13   14 ar   
    28   13   15 1    
    29   14   83 1    
    30   15   16 1    
    31   15   84 1    
    32   15   85 1    
    33   16   17 1    
    34   17   18 1    
    35   17   86 1    
    36   17   87 1    
    37   18   19 1    
    38   18   37 1    
    39   18   88 1    
    40   19   20 am   BACKBONE|DICT|INTERRES
    41   19   89 1    
    42   20   21 2    
    43   20   22 1    
    44   22   23 1    
    45   22   24 1    
    46   22   90 1    
    47   23   91 1    
    48   23   92 1    
    49   23   93 1    
    50   24   25 am   BACKBONE|DICT|INTERRES
    51   24   94 1    
    52   25   26 2    
    53   25   27 1    
    54   27   28 1    
    55   27   29 1    
    56   27   95 1    
    57   28   96 1    
    58   28   97 1    
    59   28   98 1    
    60   29   30 am   BACKBONE|DICT|INTERRES
    61   29   99 1    
    62   30   31 2    
    63   30   32 1    
    64   32   33 1    
    65   32   34 1    
    66   32  100 1    
    67   33  101 1    
    68   33  102 1    
    69   33  103 1    
    70   34   35 am   BACKBONE|DICT|INTERRES
    71   34  104 1    
    72   35   36 2    
    73   37   38 2    
    74   37   39 am   BACKBONE|DICT|INTERRES
    75   39   40 1    
    76   39  105 1    
    77   40   41 1    
    78   40   42 1    
    79   40  106 1    
    80   41  107 1    
    81   41  108 1    
    82   41  109 1    
    83   42   43 2    
    84   42   44 am   BACKBONE|DICT|INTERRES
    85   44   45 1    
    86   44  110 1    
    87   45   46 1    
    88   45   47 1    
    89   45  111 1    
    90   46  112 1    
    91   46  113 1    
    92   46  114 1    
    93   47   48 2    
    94   47   49 am   BACKBONE|DICT|INTERRES
    95   49   50 1    
    96   49  115 1    
    97   50   51 1    
    98   50   52 1    
    99   50  116 1    
   100   51  117 1    
   101   51  118 1    
   102   51  119 1    
   103   52   53 2    
   104   52   54 am   BACKBONE|DICT|INTERRES
   105   54   55 1    
   106   54  120 1    
   107   55   56 1    
   108   55   57 1    
   109   55  121 1    
   110   56  122 1    
   111   56  123 1    
   112   56  124 1    
   113   57   58 2    
   114   57   59 am   BACKBONE|DICT|INTERRES
   115   59   60 1    
   116   59  125 1    
   117   60   61 1    
   118   60   62 1    
   119   60  126 1    
   120   61  127 1    
   121   61  128 1    
   122   61  129 1    
   123   62   63 2    
   124   62   64 am   BACKBONE|DICT|INTERRES
   125   64   65 1    
   126   64  130 1    
   127   65   66 1    
   128   65   69 1    
   129   65  131 1    
   130   66   67 am   BACKBONE|DICT|INTERRES
   131   66   68 2    
   132   67  132 1    
   133   67  133 1    
   134   69   70 1    
   135   69  134 1    
   136   69  135 1    
   137   70   71 1    
   138   71  136 1    
   139   71  137 1    
@<TRIPOS>SUBSTRUCTURE
     1 UNK         1 GROUP             0       ****    0 ROOT    
