@<TRIPOS>MOLECULE
3R137
137   139    1
SMALL
USER_CHARGES


@<TRIPOS>ATOM
      1 CA         24.5671   -4.0005    0.9477 C.3       0 UNK        -0.2020 
      2 C          25.9657   -3.4026    0.9225 C.2       0 UNK         0.4855 
      3 O          26.3094   -2.6129    1.8022 O.2       0 UNK        -0.5197 
      4 N          26.7747   -3.7715   -0.0802 N.am      1 UNK        -0.4892 
      5 CA         28.1424   -3.2684   -0.2811 C.3       1 UNK         0.0835 
      6 C6         28.9476   -4.2077   -1.2166 C.3       12 UNK        -0.0855 
      7 S7         30.7119   -4.3190   -0.7610 S.3       12 UNK        -0.2931 
      8 C8         31.3008   -5.6153   -1.9008 C.3       12 UNK         0.0378 
      9 C9         31.2651   -5.1364   -3.3437 C.ar      12 UNK        -0.0802 
     10 C10        32.3232   -4.3848   -3.8634 C.ar      12 UNK        -0.0944 
     11 C11        32.2574   -3.8758   -5.1638 C.ar      12 UNK        -0.0787 
     12 C12        31.1276   -4.1279   -5.9467 C.ar      12 UNK        -0.0862 
     13 C13        30.0603   -4.8698   -5.4323 C.ar      12 UNK        -0.0733 
     14 C14        30.1488   -5.3991   -4.1426 C.ar      12 UNK        -0.0832 
     15 C15        28.7815   -5.0398   -6.2400 C.3       12 UNK         0.0240 
     16 S16        27.3754   -4.1687   -5.4662 S.3       12 UNK        -0.2522 
     17 C17        27.9440   -2.4329   -5.4706 C.3       12 UNK        -0.0967 
     18 CA         27.2710   -1.6057   -6.5877 C.3       5 UNK         0.0660 
     19 N          25.8210   -1.4901   -6.4037 N.am      5 UNK        -0.4015 
     20 C          24.9744   -1.0990   -7.3668 C.2       4 UNK         0.4946 
     21 O          25.3301   -0.8140   -8.5086 O.2       4 UNK        -0.5353 
     22 CA         23.4922   -0.9376   -6.9891 C.3       4 UNK         0.0277 
     23 CB         22.7515   -2.2761   -7.1323 C.3       4 UNK        -0.1981 
     24 N          23.2922   -0.4045   -5.6398 N.am      4 UNK        -0.4209 
     25 C          23.7632    0.7720   -5.2036 C.2       3 UNK         0.4942 
     26 O          24.3842    1.5627   -5.9139 O.2       3 UNK        -0.5208 
     27 CA         23.5679    1.1047   -3.7139 C.3       3 UNK         0.0250 
     28 CB         22.4453    0.2894   -3.0313 C.3       3 UNK        -0.1990 
     29 N          24.8223    0.9788   -2.9587 N.am      3 UNK        -0.4232 
     30 C          25.6055   -0.1071   -2.8634 C.2       2 UNK         0.4993 
     31 O          25.3934   -1.1594   -3.4729 O.2       2 UNK        -0.5286 
     32 CA         26.8273   -0.0205   -1.9333 C.3       2 UNK         0.0209 
     33 CB         26.6543    0.9992   -0.7833 C.3       2 UNK        -0.1931 
     34 N          27.0676   -1.3608   -1.4046 N.am      2 UNK        -0.4546 
     35 C          28.1664   -1.8023   -0.7797 C.2       1 UNK         0.5154 
     36 O          29.1603   -1.1031   -0.5783 O.2       1 UNK        -0.5181 
     37 C          27.9435   -0.2258   -6.7193 C.2       5 UNK         0.5014 
     38 O          28.8929   -0.0905   -7.4928 O.2       5 UNK        -0.5248 
     39 N          27.4307    0.7834   -6.0003 N.am      6 UNK        -0.4434 
     40 CA         27.9015    2.1678   -6.0924 C.3       6 UNK         0.0363 
     41 CB         27.3632    2.9873   -4.9085 C.3       6 UNK        -0.1936 
     42 C          27.5330    2.8214   -7.4362 C.2       6 UNK         0.5081 
     43 O          28.2775    3.6764   -7.9123 O.2       6 UNK        -0.5248 
     44 N          26.4116    2.3957   -8.0319 N.am      7 UNK        -0.4718 
     45 CA         25.9955    2.7852   -9.3766 C.3       7 UNK         0.0273 
     46 CB         24.4802    2.5686   -9.5278 C.3       7 UNK        -0.1935 
     47 C          26.7755    2.0285  -10.4660 C.2       7 UNK         0.5018 
     48 O          27.3062    2.6661  -11.3761 O.2       7 UNK        -0.5186 
     49 N          26.8014    0.6903  -10.3775 N.am      8 UNK        -0.4240 
     50 CA         27.3439   -0.1926  -11.4123 C.3       8 UNK         0.0235 
     51 CB         26.7557   -1.6054  -11.2549 C.3       8 UNK        -0.2000 
     52 C          28.8778   -0.2459  -11.4381 C.2       8 UNK         0.4941 
     53 O          29.4657   -0.0354  -12.5001 O.2       8 UNK        -0.5273 
     54 N          29.4960   -0.5632  -10.2926 N.am      9 UNK        -0.4262 
     55 CA         30.9462   -0.7303  -10.1704 C.3       9 UNK         0.0264 
     56 CB         31.2670   -1.8240   -9.1360 C.3       9 UNK        -0.1955 
     57 C          31.6310    0.5883   -9.7956 C.2       9 UNK         0.5031 
     58 O          32.6799    0.8998  -10.3610 O.2       9 UNK        -0.5390 
     59 N          31.0289    1.3260   -8.8488 N.am      10 UNK        -0.4204 
     60 CA         31.4978    2.6067   -8.2986 C.3       10 UNK         0.0237 
     61 CB         31.4273    3.7196   -9.3665 C.3       10 UNK        -0.1985 
     62 C          32.8790    2.5137   -7.6161 C.2       10 UNK         0.4970 
     63 O          33.6513    3.4739   -7.6489 O.2       10 UNK        -0.4914 
     64 N          33.1622    1.3526   -7.0148 N.am      11 UNK        -0.4285 
     65 CA         34.3811    1.0547   -6.2542 C.3       11 UNK         0.1007 
     66 C          34.4961    1.8545   -4.9244 C.2       11 UNK         0.5703 
     67 N          35.7017    1.9855   -4.3867 N.am      11 UNK        -0.7361 
     68 O          33.5117    2.3363   -4.3654 O.2       11 UNK        -0.4986 
     69 C69        34.5438   -0.4755   -6.0447 C.3       12 UNK        -0.0947 
     70 S70        33.0988   -1.2683   -5.2606 S.3       12 UNK        -0.2240 
     71 C71        33.3807   -3.0074   -5.7036 C.3       12 UNK         0.0194 
     72 H72        24.3990   -4.6839    0.1156 H         1 UNK         0.0906 
     73 H73        24.4115   -4.5513    1.8750 H         1 UNK         0.0906 
     74 H74        23.8201   -3.2090    0.8923 H         1 UNK         0.0906 
     75 H75        26.4392   -4.4293   -0.7702 H         1 UNK         0.3140 
     76 H76        28.6211   -3.2676    0.7012 H         1 UNK         0.1085 
     77 H77        28.5504   -5.2231   -1.1681 H         1 UNK         0.0836 
     78 H78        28.8507   -3.8999   -2.2596 H         1 UNK         0.0836 
     79 H79        32.3209   -5.8905   -1.6288 H         1 UNK         0.0731 
     80 H80        30.6981   -6.5165   -1.7772 H         1 UNK         0.0731 
     81 H81        33.1816   -4.1650   -3.2432 H         1 UNK         0.1312 
     82 H82        31.0626   -3.7105   -6.9413 H         1 UNK         0.1406 
     83 H83        29.3178   -5.9627   -3.7403 H         1 UNK         0.1631 
     84 H84        28.5431   -6.1013   -6.3195 H         1 UNK         0.0717 
     85 H85        28.9097   -4.6737   -7.2600 H         1 UNK         0.0717 
     86 H86        29.0288   -2.4002   -5.5741 H         1 UNK         0.0934 
     87 H87        27.7340   -2.0041   -4.4895 H         1 UNK         0.0934 
     88 H88        27.4435   -2.1250   -7.5333 H         1 UNK         0.0739 
     89 H89        25.4683   -1.6656   -5.4677 H         1 UNK         0.3093 
     90 H90        23.0526   -0.2257   -7.6909 H         1 UNK         0.0818 
     91 H91        21.6817   -2.1591   -6.9578 H         1 UNK         0.0819 
     92 H92        22.8712   -2.6813   -8.1382 H         1 UNK         0.0819 
     93 H93        23.1274   -3.0241   -6.4329 H         1 UNK         0.0819 
     94 H94        22.8273   -1.0052   -4.9745 H         1 UNK         0.3041 
     95 H95        23.2813    2.1568   -3.6747 H         1 UNK         0.0784 
     96 H96        21.5031    0.3831   -3.5733 H         1 UNK         0.0793 
     97 H97        22.6845   -0.7721   -2.9574 H         1 UNK         0.0793 
     98 H98        22.2653    0.6516   -2.0190 H         1 UNK         0.0793 
     99 H99        25.0930    1.8005   -2.4367 H         1 UNK         0.3024 
    100 H100       27.6850    0.2679   -2.5447 H         1 UNK         0.1171 
    101 H101       27.5125    0.9957   -0.1115 H         1 UNK         0.0786 
    102 H102       25.7689    0.7830   -0.1837 H         1 UNK         0.0786 
    103 H103       26.5650    2.0188   -1.1596 H         1 UNK         0.0786 
    104 H104       26.3191   -2.0171   -1.5877 H         1 UNK         0.2977 
    105 H105       26.5956    0.6203   -5.4570 H         1 UNK         0.3127 
    106 H106       28.9910    2.1563   -6.0203 H         1 UNK         0.0770 
    107 H107       26.2757    3.0566   -4.9189 H         1 UNK         0.0814 
    108 H108       27.7502    4.0068   -4.9387 H         1 UNK         0.0814 
    109 H109       27.6665    2.5565   -3.9547 H         1 UNK         0.0814 
    110 H110       25.8149    1.7476   -7.5312 H         1 UNK         0.2983 
    111 H111       26.1940    3.8517   -9.5065 H         1 UNK         0.0947 
    112 H112       24.1403    2.8723  -10.5187 H         1 UNK         0.0806 
    113 H113       23.9231    3.1573   -8.7987 H         1 UNK         0.0806 
    114 H114       24.2006    1.5234   -9.3931 H         1 UNK         0.0806 
    115 H115       26.3078    0.2357   -9.6101 H         1 UNK         0.3000 
    116 H116       27.0156    0.1897  -12.3817 H         1 UNK         0.0850 
    117 H117       27.1218   -2.2712  -12.0376 H         1 UNK         0.0810 
    118 H118       25.6678   -1.5903  -11.3251 H         1 UNK         0.0810 
    119 H119       27.0197   -2.0526  -10.2959 H         1 UNK         0.0810 
    120 H120       28.9556   -0.6425   -9.4384 H         1 UNK         0.3040 
    121 H121       31.3556   -1.0583  -11.1286 H         1 UNK         0.0766 
    122 H122       32.3423   -1.9982   -9.0786 H         1 UNK         0.0812 
    123 H123       30.9316   -1.5568   -8.1341 H         1 UNK         0.0812 
    124 H124       30.7997   -2.7713   -9.4049 H         1 UNK         0.0812 
    125 H125       30.1911    0.9381   -8.4189 H         1 UNK         0.3205 
    126 H126       30.7992    2.8704   -7.5051 H         1 UNK         0.0754 
    127 H127       32.1534    3.5636  -10.1648 H         1 UNK         0.0769 
    128 H128       31.6294    4.6971   -8.9272 H         1 UNK         0.0769 
    129 H129       30.4361    3.7692   -9.8181 H         1 UNK         0.0769 
    130 H130       32.4595    0.6293   -7.0031 H         1 UNK         0.2981 
    131 H131       35.2161    1.3824   -6.8766 H         1 UNK         0.0541 
    132 H132       36.5172    1.5909   -4.8290 H         1 UNK         0.3459 
    133 H133       35.7981    2.4922   -3.5206 H         1 UNK         0.3459 
    134 H134       35.4328   -0.6991   -5.4524 H         1 UNK         0.0612 
    135 H135       34.7074   -0.9492   -7.0140 H         1 UNK         0.0612 
    136 H136       33.4455   -3.1035   -6.7886 H         1 UNK         0.0624 
    137 H137       34.3401   -3.3356   -5.3007 H         1 UNK         0.0624 
@<TRIPOS>BOND
     1    1    2 1    
     2    1   72 1    
     3    1   73 1    
     4    1   74 1    
     5    2    3 2    
     6    2    4 am   BACKBONE|DICT|INTERRES
     7    4    5 1    
     8    4   75 1    
     9    5    6 1    
    10    5   35 1    
    11    5   76 1    
    12    6    7 1    
    13    6   77 1    
    14    6   78 1    
    15    7    8 1    
    16    8    9 1    
    17    8   79 1    
    18    8   80 1    
    19    9   10 ar   
    20    9   14 ar   
    21   10   11 ar   
    22   10   81 1    
    23   11   12 ar   
    24   11   71 1    
    25   12   13 ar   
    26   12   82 1    
    27   13   14 ar   
    28   13   15 1    
    29   14   83 1    
    30   15   16 1    
    31   15   84 1    
    32   15   85 1    
    33   16   17 1    
    34   17   18 1    
    35   17   86 1    
    36   17   87 1    
    37   18   19 1    
    38   18   37 1    
    39   18   88 1    
    40   19   20 am   BACKBONE|DICT|INTERRES
    41   19   89 1    
    42   20   21 2    
    43   20   22 1    
    44   22   23 1    
    45   22   24 1    
    46   22   90 1    
    47   23   91 1    
    48   23   92 1    
    49   23   93 1    
    50   24   25 am   BACKBONE|DICT|INTERRES
    51   24   94 1    
    52   25   26 2    
    53   25   27 1    
    54   27   28 1    
    55   27   29 1    
    56   27   95 1    
    57   28   96 1    
    58   28   97 1    
    59   28   98 1    
    60   29   30 am   BACKBONE|DICT|INTERRES
    61   29   99 1    
    62   30   31 2    
    63   30   32 1    
    64   32   33 1    
    65   32   34 1    
    66   32  100 1    
    67   33  101 1    
    68   33  102 1    
    69   33  103 1    
    70   34   35 am   BACKBONE|DICT|INTERRES
    71   34  104 1    
    72   35   36 2    
    73   37   38 2    
    74   37   39 am   BACKBONE|DICT|INTERRES
    75   39   40 1    
    76   39  105 1    
    77   40   41 1    
    78   40   42 1    
    79   40  106 1    
    80   41  107 1    
    81   41  108 1    
    82   41  109 1    
    83   42   43 2    
    84   42   44 am   BACKBONE|DICT|INTERRES
    85   44   45 1    
    86   44  110 1    
    87   45   46 1    
    88   45   47 1    
    89   45  111 1    
    90   46  112 1    
    91   46  113 1    
    92   46  114 1    
    93   47   48 2    
    94   47   49 am   BACKBONE|DICT|INTERRES
    95   49   50 1    
    96   49  115 1    
    97   50   51 1    
    98   50   52 1    
    99   50  116 1    
   100   51  117 1    
   101   51  118 1    
   102   51  119 1    
   103   52   53 2    
   104   52   54 am   BACKBONE|DICT|INTERRES
   105   54   55 1    
   106   54  120 1    
   107   55   56 1    
   108   55   57 1    
   109   55  121 1    
   110   56  122 1    
   111   56  123 1    
   112   56  124 1    
   113   57   58 2    
   114   57   59 am   BACKBONE|DICT|INTERRES
   115   59   60 1    
   116   59  125 1    
   117   60   61 1    
   118   60   62 1    
   119   60  126 1    
   120   61  127 1    
   121   61  128 1    
   122   61  129 1    
   123   62   63 2    
   124   62   64 am   BACKBONE|DICT|INTERRES
   125   64   65 1    
   126   64  130 1    
   127   65   66 1    
   128   65   69 1    
   129   65  131 1    
   130   66   67 am   BACKBONE|DICT|INTERRES
   131   66   68 2    
   132   67  132 1    
   133   67  133 1    
   134   69   70 1    
   135   69  134 1    
   136   69  135 1    
   137   70   71 1    
   138   71  136 1    
   139   71  137 1    
@<TRIPOS>SUBSTRUCTURE
     1 UNK         1 GROUP             0       ****    0 ROOT    
