@<TRIPOS>MOLECULE
3R137
137   139    1
SMALL
USER_CHARGES


@<TRIPOS>ATOM
      1 CA         28.9145   -1.6425    3.4133 C.3       0 UNK        -0.2020 
      2 C          28.9379   -1.1882    1.9616 C.2       0 UNK         0.4855 
      3 O          29.3757   -0.0737    1.6760 O.2       0 UNK        -0.5197 
      4 N          28.4694   -2.0426    1.0424 N.am      1 UNK        -0.4892 
      5 CA         28.4266   -1.7808   -0.4046 C.3       1 UNK         0.0835 
      6 C6         28.2347   -3.0837   -1.2219 C.3       12 UNK        -0.0855 
      7 S7         29.5625   -4.2944   -0.9021 S.3       12 UNK        -0.2931 
      8 C8         29.5109   -5.3168   -2.4155 C.3       12 UNK         0.0378 
      9 C9         29.9503   -4.6121   -3.7007 C.ar      12 UNK        -0.0802 
     10 C10        30.8622   -3.5472   -3.6961 C.ar      12 UNK        -0.0944 
     11 C11        31.2657   -2.9337   -4.8860 C.ar      12 UNK        -0.0787 
     12 C12        30.7420   -3.4110   -6.0954 C.ar      12 UNK        -0.0862 
     13 C13        29.8323   -4.4708   -6.1262 C.ar      12 UNK        -0.0733 
     14 C14        29.4524   -5.0746   -4.9236 C.ar      12 UNK        -0.0832 
     15 C15        29.3185   -4.9642   -7.4793 C.3       12 UNK         0.0240 
     16 S16        27.5553   -5.4479   -7.5362 S.3       12 UNK        -0.2522 
     17 C17        26.6702   -4.0517   -6.7646 C.3       12 UNK        -0.0967 
     18 CA         26.4548   -2.8237   -7.6924 C.3       5 UNK         0.0660 
     19 N          25.2047   -2.1341   -7.3567 N.am      5 UNK        -0.4015 
     20 C          24.7543   -0.9813   -7.8737 C.2       4 UNK         0.4946 
     21 O          25.2829   -0.3949   -8.8172 O.2       4 UNK        -0.5353 
     22 CA         23.5346   -0.3393   -7.1860 C.3       4 UNK         0.0277 
     23 CB         22.2583   -0.6135   -7.9970 C.3       4 UNK        -0.1981 
     24 N          23.3276   -0.7581   -5.7920 N.am      4 UNK        -0.4209 
     25 C          24.2040   -0.5942   -4.7899 C.2       3 UNK         0.4942 
     26 O          25.3246   -0.0945   -4.9261 O.2       3 UNK        -0.5208 
     27 CA         23.7773   -1.1509   -3.4287 C.3       3 UNK         0.0250 
     28 CB         23.9920   -2.6755   -3.3729 C.3       3 UNK        -0.1990 
     29 N          24.5632   -0.5129   -2.3784 N.am      3 UNK        -0.4232 
     30 C          24.1659   -0.3180   -1.1171 C.2       2 UNK         0.4993 
     31 O          23.0627   -0.6629   -0.6881 O.2       2 UNK        -0.5286 
     32 CA         25.1926    0.3343   -0.1716 C.3       2 UNK         0.0209 
     33 CB         24.5851    0.7245    1.1894 C.3       2 UNK        -0.1931 
     34 N          26.3302   -0.5590    0.0590 N.am      2 UNK        -0.4546 
     35 C          27.3492   -0.7454   -0.7917 C.2       1 UNK         0.5154 
     36 O          27.4474   -0.1426   -1.8599 O.2       1 UNK        -0.5181 
     37 C          27.6664   -1.8718   -7.6229 C.2       5 UNK         0.5014 
     38 O          28.4255   -1.7708   -8.5873 O.2       5 UNK        -0.5248 
     39 N          27.7956   -1.1654   -6.4907 N.am      6 UNK        -0.4434 
     40 CA         28.8920   -0.2397   -6.2208 C.3       6 UNK         0.0363 
     41 CB         28.9250    0.0799   -4.7217 C.3       6 UNK        -0.1936 
     42 C          28.8052    1.0411   -7.0589 C.2       6 UNK         0.5081 
     43 O          29.8423    1.5671   -7.4595 O.2       6 UNK        -0.5248 
     44 N          27.5790    1.5004   -7.3448 N.am      7 UNK        -0.4718 
     45 CA         27.3174    2.6340   -8.2333 C.3       7 UNK         0.0273 
     46 CB         25.8470    3.0657   -8.1136 C.3       7 UNK        -0.1935 
     47 C          27.6859    2.3192   -9.6926 C.2       7 UNK         0.5018 
     48 O          28.3249    3.1459  -10.3435 O.2       7 UNK        -0.5186 
     49 N          27.3055    1.1235  -10.1659 N.am      8 UNK        -0.4240 
     50 CA         27.6190    0.6165  -11.5031 C.3       8 UNK         0.0235 
     51 CB         26.7959   -0.6524  -11.7788 C.3       8 UNK        -0.2000 
     52 C          29.1190    0.3462  -11.7028 C.2       8 UNK         0.4941 
     53 O          29.6683    0.7279  -12.7370 O.2       8 UNK        -0.5273 
     54 N          29.7548   -0.2975  -10.7142 N.am      9 UNK        -0.4262 
     55 CA         31.1827   -0.6293  -10.7287 C.3       9 UNK         0.0264 
     56 CB         31.4314   -1.7736   -9.7377 C.3       9 UNK        -0.1955 
     57 C          32.1107    0.5628  -10.4232 C.2       9 UNK         0.5031 
     58 O          33.3067    0.4610  -10.7004 O.2       9 UNK        -0.5390 
     59 N          31.5572    1.6515   -9.8675 N.am      10 UNK        -0.4204 
     60 CA         32.2302    2.8772   -9.4224 C.3       10 UNK         0.0237 
     61 CB         32.8900    3.6209  -10.6041 C.3       10 UNK        -0.1985 
     62 C          33.1920    2.6074   -8.2497 C.2       10 UNK         0.4970 
     63 O          34.3896    2.8849   -8.3451 O.2       10 UNK        -0.4914 
     64 N          32.6335    2.0686   -7.1633 N.am      11 UNK        -0.4285 
     65 CA         33.3204    1.7371   -5.9079 C.3       11 UNK         0.1007 
     66 C          32.4497    2.0880   -4.6692 C.2       11 UNK         0.5703 
     67 N          32.8567    1.6848   -3.4726 N.am      11 UNK        -0.7361 
     68 O          31.4271    2.7635   -4.7680 O.2       11 UNK        -0.4986 
     69 C69        33.9053    0.2926   -5.9118 C.3       12 UNK        -0.0947 
     70 S70        32.7174   -1.0037   -6.3977 S.3       12 UNK        -0.2240 
     71 C71        32.2673   -1.7734   -4.8031 C.3       12 UNK         0.0194 
     72 H72        28.3041   -0.9642    4.0089 H         1 UNK         0.0906 
     73 H73        28.5075   -2.6478    3.5204 H         1 UNK         0.0906 
     74 H74        29.9243   -1.6409    3.8229 H         1 UNK         0.0906 
     75 H75        28.1541   -2.9595    1.3277 H         1 UNK         0.3140 
     76 H76        29.3863   -1.3447   -0.6922 H         1 UNK         0.1085 
     77 H77        27.2747   -3.5507   -0.9930 H         1 UNK         0.0836 
     78 H78        28.2183   -2.8582   -2.2905 H         1 UNK         0.0836 
     79 H79        28.4972   -5.7046   -2.5292 H         1 UNK         0.0731 
     80 H80        30.1565   -6.1829   -2.2654 H         1 UNK         0.0731 
     81 H81        31.2718   -3.1913   -2.7612 H         1 UNK         0.1312 
     82 H82        31.0392   -2.9685   -7.0325 H         1 UNK         0.1406 
     83 H83        28.7655   -5.9101   -4.9414 H         1 UNK         0.1631 
     84 H84        29.9169   -5.8262   -7.7761 H         1 UNK         0.0717 
     85 H85        29.4844   -4.2089   -8.2482 H         1 UNK         0.0717 
     86 H86        25.7020   -4.4665   -6.4793 H         1 UNK         0.0934 
     87 H87        27.1392   -3.7801   -5.8173 H         1 UNK         0.0934 
     88 H88        26.3537   -3.1634   -8.7252 H         1 UNK         0.0739 
     89 H89        24.6714   -2.5312   -6.5989 H         1 UNK         0.3093 
     90 H90        23.7067    0.7387   -7.1757 H         1 UNK         0.0818 
     91 H91        21.4028   -0.0766   -7.5866 H         1 UNK         0.0819 
     92 H92        22.3758   -0.2862   -9.0314 H         1 UNK         0.0819 
     93 H93        22.0120   -1.6758   -8.0179 H         1 UNK         0.0819 
     94 H94        22.4376   -1.1897   -5.5849 H         1 UNK         0.3041 
     95 H95        22.7196   -0.9210   -3.2816 H         1 UNK         0.0784 
     96 H96        23.4122   -3.1876   -4.1416 H         1 UNK         0.0793 
     97 H97        25.0404   -2.9398   -3.5195 H         1 UNK         0.0793 
     98 H98        23.6787   -3.0836   -2.4117 H         1 UNK         0.0793 
     99 H99        25.4878   -0.1984   -2.6621 H         1 UNK         0.3024 
    100 H100       25.5465    1.2491   -0.6533 H         1 UNK         0.1171 
    101 H101       25.3156    1.2357    1.8168 H         1 UNK         0.0786 
    102 H102       23.7406    1.4028    1.0595 H         1 UNK         0.0786 
    103 H103       24.2233   -0.1463    1.7378 H         1 UNK         0.0786 
    104 H104       26.3146   -1.1093    0.9053 H         1 UNK         0.2977 
    105 H105       27.0727   -1.2227   -5.7842 H         1 UNK         0.3127 
    106 H106       29.8245   -0.7372   -6.4855 H         1 UNK         0.0770 
    107 H107       28.0186    0.5943   -4.4003 H         1 UNK         0.0814 
    108 H108       29.7681    0.7236   -4.4767 H         1 UNK         0.0814 
    109 H109       29.0284   -0.8262   -4.1245 H         1 UNK         0.0814 
    110 H110       26.7805    0.9992   -6.9810 H         1 UNK         0.2983 
    111 H111       27.9435    3.4671   -7.9053 H         1 UNK         0.0947 
    112 H112       25.6552    3.9546   -8.7160 H         1 UNK         0.0806 
    113 H113       25.5864    3.3100   -7.0837 H         1 UNK         0.0806 
    114 H114       25.1646    2.2890   -8.4585 H         1 UNK         0.0806 
    115 H115       26.7342    0.5232   -9.5737 H         1 UNK         0.3000 
    116 H116       27.3208    1.3785  -12.2264 H         1 UNK         0.0850 
    117 H117       27.0037   -1.0462  -12.7746 H         1 UNK         0.0810 
    118 H118       25.7262   -0.4484  -11.7263 H         1 UNK         0.0810 
    119 H119       27.0182   -1.4423  -11.0599 H         1 UNK         0.0810 
    120 H120       29.2168   -0.6384   -9.9194 H         1 UNK         0.3040 
    121 H121       31.4424   -0.9884  -11.7269 H         1 UNK         0.0766 
    122 H122       31.1176   -1.4858   -8.7362 H         1 UNK         0.0812 
    123 H123       32.4880   -2.0406   -9.6906 H         1 UNK         0.0812 
    124 H124       30.8778   -2.6702  -10.0169 H         1 UNK         0.0812 
    125 H125       30.5783    1.5916   -9.6161 H         1 UNK         0.3205 
    126 H126       31.4441    3.5254   -9.0315 H         1 UNK         0.0754 
    127 H127       33.7181    3.0568  -11.0337 H         1 UNK         0.0769 
    128 H128       32.1698    3.8169  -11.3986 H         1 UNK         0.0769 
    129 H129       33.2883    4.5837  -10.2818 H         1 UNK         0.0769 
    130 H130       31.6282    1.8987   -7.1614 H         1 UNK         0.2981 
    131 H131       34.1664    2.4203   -5.8152 H         1 UNK         0.0541 
    132 H132       33.7092    1.1609   -3.3578 H         1 UNK         0.3459 
    133 H133       32.3067    1.9297   -2.6647 H         1 UNK         0.3459 
    134 H134       34.3638    0.0361   -4.9562 H         1 UNK         0.0612 
    135 H135       34.7205    0.2521   -6.6355 H         1 UNK         0.0612 
    136 H136       33.1790   -2.1323   -4.3239 H         1 UNK         0.0624 
    137 H137       31.8523   -1.0015   -4.1540 H         1 UNK         0.0624 
@<TRIPOS>BOND
     1    1    2 1    
     2    1   72 1    
     3    1   73 1    
     4    1   74 1    
     5    2    3 2    
     6    2    4 am   BACKBONE|DICT|INTERRES
     7    4    5 1    
     8    4   75 1    
     9    5    6 1    
    10    5   35 1    
    11    5   76 1    
    12    6    7 1    
    13    6   77 1    
    14    6   78 1    
    15    7    8 1    
    16    8    9 1    
    17    8   79 1    
    18    8   80 1    
    19    9   10 ar   
    20    9   14 ar   
    21   10   11 ar   
    22   10   81 1    
    23   11   12 ar   
    24   11   71 1    
    25   12   13 ar   
    26   12   82 1    
    27   13   14 ar   
    28   13   15 1    
    29   14   83 1    
    30   15   16 1    
    31   15   84 1    
    32   15   85 1    
    33   16   17 1    
    34   17   18 1    
    35   17   86 1    
    36   17   87 1    
    37   18   19 1    
    38   18   37 1    
    39   18   88 1    
    40   19   20 am   BACKBONE|DICT|INTERRES
    41   19   89 1    
    42   20   21 2    
    43   20   22 1    
    44   22   23 1    
    45   22   24 1    
    46   22   90 1    
    47   23   91 1    
    48   23   92 1    
    49   23   93 1    
    50   24   25 am   BACKBONE|DICT|INTERRES
    51   24   94 1    
    52   25   26 2    
    53   25   27 1    
    54   27   28 1    
    55   27   29 1    
    56   27   95 1    
    57   28   96 1    
    58   28   97 1    
    59   28   98 1    
    60   29   30 am   BACKBONE|DICT|INTERRES
    61   29   99 1    
    62   30   31 2    
    63   30   32 1    
    64   32   33 1    
    65   32   34 1    
    66   32  100 1    
    67   33  101 1    
    68   33  102 1    
    69   33  103 1    
    70   34   35 am   BACKBONE|DICT|INTERRES
    71   34  104 1    
    72   35   36 2    
    73   37   38 2    
    74   37   39 am   BACKBONE|DICT|INTERRES
    75   39   40 1    
    76   39  105 1    
    77   40   41 1    
    78   40   42 1    
    79   40  106 1    
    80   41  107 1    
    81   41  108 1    
    82   41  109 1    
    83   42   43 2    
    84   42   44 am   BACKBONE|DICT|INTERRES
    85   44   45 1    
    86   44  110 1    
    87   45   46 1    
    88   45   47 1    
    89   45  111 1    
    90   46  112 1    
    91   46  113 1    
    92   46  114 1    
    93   47   48 2    
    94   47   49 am   BACKBONE|DICT|INTERRES
    95   49   50 1    
    96   49  115 1    
    97   50   51 1    
    98   50   52 1    
    99   50  116 1    
   100   51  117 1    
   101   51  118 1    
   102   51  119 1    
   103   52   53 2    
   104   52   54 am   BACKBONE|DICT|INTERRES
   105   54   55 1    
   106   54  120 1    
   107   55   56 1    
   108   55   57 1    
   109   55  121 1    
   110   56  122 1    
   111   56  123 1    
   112   56  124 1    
   113   57   58 2    
   114   57   59 am   BACKBONE|DICT|INTERRES
   115   59   60 1    
   116   59  125 1    
   117   60   61 1    
   118   60   62 1    
   119   60  126 1    
   120   61  127 1    
   121   61  128 1    
   122   61  129 1    
   123   62   63 2    
   124   62   64 am   BACKBONE|DICT|INTERRES
   125   64   65 1    
   126   64  130 1    
   127   65   66 1    
   128   65   69 1    
   129   65  131 1    
   130   66   67 am   BACKBONE|DICT|INTERRES
   131   66   68 2    
   132   67  132 1    
   133   67  133 1    
   134   69   70 1    
   135   69  134 1    
   136   69  135 1    
   137   70   71 1    
   138   71  136 1    
   139   71  137 1    
@<TRIPOS>SUBSTRUCTURE
     1 UNK         1 GROUP             0       ****    0 ROOT    
