@<TRIPOS>MOLECULE
3R137
137   139    1
SMALL
USER_CHARGES


@<TRIPOS>ATOM
      1 CA         27.6296   -1.5630    3.6395 C.3       0 UNK        -0.2020 
      2 C          28.2658   -1.7415    2.2688 C.2       0 UNK         0.4855 
      3 O          28.9440   -0.8325    1.7890 O.2       0 UNK        -0.5197 
      4 N          28.0450   -2.9008    1.6404 N.am      1 UNK        -0.4892 
      5 CA         28.5219   -3.2476    0.2995 C.3       1 UNK         0.0835 
      6 C6         29.6508   -4.3113    0.3419 C.3       12 UNK        -0.0855 
      7 S7         31.2486   -3.5469    0.7781 S.3       12 UNK        -0.2931 
      8 C8         32.1988   -3.7055   -0.7753 C.3       12 UNK         0.0378 
      9 C9         31.4832   -3.1579   -2.0091 C.ar      12 UNK        -0.0802 
     10 C10        31.4323   -3.9289   -3.1756 C.ar      12 UNK        -0.0944 
     11 C11        30.8259   -3.4339   -4.3359 C.ar      12 UNK        -0.0787 
     12 C12        30.2024   -2.1852   -4.2956 C.ar      12 UNK        -0.0862 
     13 C13        30.2296   -1.4085   -3.1349 C.ar      12 UNK        -0.0733 
     14 C14        30.8976   -1.8864   -2.0033 C.ar      12 UNK        -0.0832 
     15 C15        29.5052   -0.0716   -3.1065 C.3       12 UNK         0.0240 
     16 S16        30.1744    1.0847   -4.3375 S.3       12 UNK        -0.2522 
     17 C17        28.7358    2.1638   -4.6400 C.3       12 UNK        -0.0967 
     18 CA         28.1306    1.9401   -6.0484 C.3       5 UNK         0.0660 
     19 N          27.5357    0.6074   -6.2213 N.am      5 UNK        -0.4015 
     20 C          27.1678    0.1082   -7.4109 C.2       4 UNK         0.4946 
     21 O          27.3621    0.6945   -8.4755 O.2       4 UNK        -0.5353 
     22 CA         26.4171   -1.2357   -7.4401 C.3       4 UNK         0.0277 
     23 CB         27.3820   -2.3868   -7.7567 C.3       4 UNK        -0.1981 
     24 N          25.6618   -1.5720   -6.2312 N.am      4 UNK        -0.4209 
     25 C          24.7091   -0.8322   -5.6449 C.2       3 UNK         0.4942 
     26 O          24.4147    0.3070   -6.0058 O.2       3 UNK        -0.5208 
     27 CA         23.9612   -1.4658   -4.4537 C.3       3 UNK         0.0250 
     28 CB         22.5328   -1.8547   -4.8676 C.3       3 UNK        -0.1990 
     29 N          24.6397   -2.6435   -3.8939 N.am      3 UNK        -0.4232 
     30 C          25.7844   -2.5840   -3.2015 C.2       2 UNK         0.4993 
     31 O          26.3401   -1.5234   -2.9091 O.2       2 UNK        -0.5286 
     32 CA         26.4493   -3.9247   -2.8489 C.3       2 UNK         0.0209 
     33 CB         27.0737   -4.5606   -4.1042 C.3       2 UNK        -0.1931 
     34 N          27.5095   -3.7103   -1.8654 N.am      2 UNK        -0.4546 
     35 C          27.3278   -3.7257   -0.5408 C.2       1 UNK         0.5154 
     36 O          26.2840   -4.0918    0.0090 O.2       1 UNK        -0.5181 
     37 C          27.1473    3.0754   -6.4089 C.2       5 UNK         0.5014 
     38 O          27.5926    4.1010   -6.9248 O.2       5 UNK        -0.5248 
     39 N          25.8381    2.8758   -6.1834 N.am      6 UNK        -0.4434 
     40 CA         24.7901    3.8259   -6.5754 C.3       6 UNK         0.0363 
     41 CB         23.5088    3.5492   -5.7725 C.3       6 UNK        -0.1936 
     42 C          24.5028    3.7861   -8.0868 C.2       6 UNK         0.5081 
     43 O          24.0922    4.7993   -8.6520 O.2       6 UNK        -0.5248 
     44 N          24.7509    2.6304   -8.7185 N.am      7 UNK        -0.4718 
     45 CA         24.6686    2.4275  -10.1680 C.3       7 UNK         0.0273 
     46 CB         24.3921    0.9392  -10.4427 C.3       7 UNK        -0.1935 
     47 C          25.9371    2.8866  -10.9156 C.2       7 UNK         0.5018 
     48 O          25.9449    2.8499  -12.1465 O.2       7 UNK        -0.5186 
     49 N          26.9803    3.2853  -10.1697 N.am      8 UNK        -0.4240 
     50 CA         28.3237    3.6608  -10.6263 C.3       8 UNK         0.0235 
     51 CB         28.2832    4.9311  -11.5029 C.3       8 UNK        -0.2000 
     52 C          29.0828    2.4905  -11.2852 C.2       8 UNK         0.4941 
     53 O          29.8553    2.7056  -12.2209 O.2       8 UNK        -0.5273 
     54 N          28.8670    1.2759  -10.7660 N.am      9 UNK        -0.4262 
     55 CA         29.5060    0.0289  -11.1867 C.3       9 UNK         0.0264 
     56 CB         28.4346   -0.8922  -11.8009 C.3       9 UNK        -0.1955 
     57 C          30.2211   -0.6130   -9.9843 C.2       9 UNK         0.5031 
     58 O          30.1444   -1.8282   -9.7966 O.2       9 UNK        -0.5390 
     59 N          30.8735    0.2293   -9.1706 N.am      10 UNK        -0.4204 
     60 CA         31.5493   -0.1195   -7.9195 C.3       10 UNK         0.0237 
     61 CB         32.1320    1.1657   -7.3078 C.3       10 UNK        -0.1985 
     62 C          32.6632   -1.1679   -8.0871 C.2       10 UNK         0.4970 
     63 O          33.3200   -1.2116   -9.1302 O.2       10 UNK        -0.4914 
     64 N          32.8849   -1.9498   -7.0245 N.am      11 UNK        -0.4285 
     65 CA         33.9584   -2.9506   -6.9239 C.3       11 UNK         0.1007 
     66 C          35.3943   -2.3496   -6.8404 C.2       11 UNK         0.5703 
     67 N          35.5684   -1.0658   -6.5472 N.am      11 UNK        -0.7361 
     68 O          36.3702   -3.0655   -7.0526 O.2       11 UNK        -0.4986 
     69 C69        33.7030   -3.9168   -5.7377 C.3       12 UNK        -0.0947 
     70 S70        32.3602   -5.1227   -6.0294 S.3       12 UNK        -0.2240 
     71 C71        30.8136   -4.2272   -5.6407 C.3       12 UNK         0.0194 
     72 H72        27.0757   -2.4483    3.9515 H         1 UNK         0.0906 
     73 H73        28.3980   -1.3646    4.3861 H         1 UNK         0.0906 
     74 H74        26.9408   -0.7188    3.6267 H         1 UNK         0.0906 
     75 H75        27.4092   -3.5780    2.0418 H         1 UNK         0.3140 
     76 H76        28.8876   -2.3480   -0.1980 H         1 UNK         0.1085 
     77 H77        29.4207   -5.0919    1.0693 H         1 UNK         0.0836 
     78 H78        29.7601   -4.8260   -0.6147 H         1 UNK         0.0836 
     79 H79        32.4485   -4.7587   -0.9136 H         1 UNK         0.0731 
     80 H80        33.1475   -3.1798   -0.6604 H         1 UNK         0.0731 
     81 H81        31.8943   -4.9065   -3.1921 H         1 UNK         0.1312 
     82 H82        29.6967   -1.8053   -5.1724 H         1 UNK         0.1406 
     83 H83        30.9393   -1.2829   -1.1061 H         1 UNK         0.1631 
     84 H84        29.5549    0.3873   -2.1178 H         1 UNK         0.0717 
     85 H85        28.4523   -0.2474   -3.3150 H         1 UNK         0.0717 
     86 H86        27.9822    2.0284   -3.8619 H         1 UNK         0.0934 
     87 H87        29.0892    3.1921   -4.5366 H         1 UNK         0.0934 
     88 H88        28.9476    2.0144   -6.7696 H         1 UNK         0.0739 
     89 H89        27.3340    0.0796   -5.3851 H         1 UNK         0.3093 
     90 H90        25.6901   -1.1734   -8.2517 H         1 UNK         0.0818 
     91 H91        28.1748   -2.4730   -7.0134 H         1 UNK         0.0819 
     92 H92        26.8630   -3.3439   -7.8099 H         1 UNK         0.0819 
     93 H93        27.8547   -2.2329   -8.7255 H         1 UNK         0.0819 
     94 H94        25.8205   -2.4933   -5.8537 H         1 UNK         0.3041 
     95 H95        23.8947   -0.7041   -3.6736 H         1 UNK         0.0784 
     96 H96        21.9913   -0.9920   -5.2589 H         1 UNK         0.0793 
     97 H97        22.5302   -2.6202   -5.6447 H         1 UNK         0.0793 
     98 H98        21.9625   -2.2336   -4.0191 H         1 UNK         0.0793 
     99 H99        24.2291   -3.5445   -4.0967 H         1 UNK         0.3024 
    100 H100       25.6922   -4.5992   -2.4415 H         1 UNK         0.1171 
    101 H101       26.3106   -4.8264   -4.8365 H         1 UNK         0.0786 
    102 H102       27.6110   -5.4768   -3.8575 H         1 UNK         0.0786 
    103 H103       27.7766   -3.8860   -4.5939 H         1 UNK         0.0786 
    104 H104       28.3834   -3.3583   -2.2313 H         1 UNK         0.2977 
    105 H105       25.5179    1.9788   -5.8302 H         1 UNK         0.3127 
    106 H106       25.1284    4.8350   -6.3295 H         1 UNK         0.0770 
    107 H107       23.0812    2.5749   -6.0106 H         1 UNK         0.0814 
    108 H108       22.7463    4.2979   -5.9910 H         1 UNK         0.0814 
    109 H109       23.6963    3.5816   -4.6993 H         1 UNK         0.0814 
    110 H110       25.0824    1.8479   -8.1713 H         1 UNK         0.2983 
    111 H111       23.8314    3.0092  -10.5601 H         1 UNK         0.0947 
    112 H112       24.2198    0.7654  -11.5057 H         1 UNK         0.0806 
    113 H113       23.5060    0.5920   -9.9110 H         1 UNK         0.0806 
    114 H114       25.2325    0.3113  -10.1467 H         1 UNK         0.0806 
    115 H115       26.8595    3.2539   -9.1664 H         1 UNK         0.3000 
    116 H116       28.8845    3.9075   -9.7234 H         1 UNK         0.0850 
    117 H117       29.2904    5.2935  -11.7118 H         1 UNK         0.0810 
    118 H118       27.7463    5.7390  -11.0058 H         1 UNK         0.0810 
    119 H119       27.8006    4.7475  -12.4632 H         1 UNK         0.0810 
    120 H120       28.2393    1.1863   -9.9652 H         1 UNK         0.3040 
    121 H121       30.2699    0.2218  -11.9423 H         1 UNK         0.0766 
    122 H122       27.9464   -0.4165  -12.6516 H         1 UNK         0.0812 
    123 H123       27.6629   -1.1486  -11.0739 H         1 UNK         0.0812 
    124 H124       28.8741   -1.8242  -12.1585 H         1 UNK         0.0812 
    125 H125       30.8993    1.2020   -9.4363 H         1 UNK         0.3205 
    126 H126       30.7900   -0.5198   -7.2443 H         1 UNK         0.0754 
    127 H127       32.5931    0.9669   -6.3395 H         1 UNK         0.0769 
    128 H128       31.3607    1.9180   -7.1443 H         1 UNK         0.0769 
    129 H129       32.8975    1.6059   -7.9485 H         1 UNK         0.0769 
    130 H130       32.3251   -1.8274   -6.1943 H         1 UNK         0.2981 
    131 H131       33.9407   -3.5380   -7.8439 H         1 UNK         0.0541 
    132 H132       36.5041   -0.6943   -6.5019 H         1 UNK         0.3459 
    133 H133       34.7790   -0.4675   -6.3696 H         1 UNK         0.3459 
    134 H134       34.5910   -4.5212   -5.5429 H         1 UNK         0.0612 
    135 H135       33.5302   -3.3585   -4.8177 H         1 UNK         0.0612 
    136 H136       30.0004   -4.9523   -5.5960 H         1 UNK         0.0624 
    137 H137       30.5881   -3.5713   -6.4829 H         1 UNK         0.0624 
@<TRIPOS>BOND
     1    1    2 1    
     2    1   72 1    
     3    1   73 1    
     4    1   74 1    
     5    2    3 2    
     6    2    4 am   BACKBONE|DICT|INTERRES
     7    4    5 1    
     8    4   75 1    
     9    5    6 1    
    10    5   35 1    
    11    5   76 1    
    12    6    7 1    
    13    6   77 1    
    14    6   78 1    
    15    7    8 1    
    16    8    9 1    
    17    8   79 1    
    18    8   80 1    
    19    9   10 ar   
    20    9   14 ar   
    21   10   11 ar   
    22   10   81 1    
    23   11   12 ar   
    24   11   71 1    
    25   12   13 ar   
    26   12   82 1    
    27   13   14 ar   
    28   13   15 1    
    29   14   83 1    
    30   15   16 1    
    31   15   84 1    
    32   15   85 1    
    33   16   17 1    
    34   17   18 1    
    35   17   86 1    
    36   17   87 1    
    37   18   19 1    
    38   18   37 1    
    39   18   88 1    
    40   19   20 am   BACKBONE|DICT|INTERRES
    41   19   89 1    
    42   20   21 2    
    43   20   22 1    
    44   22   23 1    
    45   22   24 1    
    46   22   90 1    
    47   23   91 1    
    48   23   92 1    
    49   23   93 1    
    50   24   25 am   BACKBONE|DICT|INTERRES
    51   24   94 1    
    52   25   26 2    
    53   25   27 1    
    54   27   28 1    
    55   27   29 1    
    56   27   95 1    
    57   28   96 1    
    58   28   97 1    
    59   28   98 1    
    60   29   30 am   BACKBONE|DICT|INTERRES
    61   29   99 1    
    62   30   31 2    
    63   30   32 1    
    64   32   33 1    
    65   32   34 1    
    66   32  100 1    
    67   33  101 1    
    68   33  102 1    
    69   33  103 1    
    70   34   35 am   BACKBONE|DICT|INTERRES
    71   34  104 1    
    72   35   36 2    
    73   37   38 2    
    74   37   39 am   BACKBONE|DICT|INTERRES
    75   39   40 1    
    76   39  105 1    
    77   40   41 1    
    78   40   42 1    
    79   40  106 1    
    80   41  107 1    
    81   41  108 1    
    82   41  109 1    
    83   42   43 2    
    84   42   44 am   BACKBONE|DICT|INTERRES
    85   44   45 1    
    86   44  110 1    
    87   45   46 1    
    88   45   47 1    
    89   45  111 1    
    90   46  112 1    
    91   46  113 1    
    92   46  114 1    
    93   47   48 2    
    94   47   49 am   BACKBONE|DICT|INTERRES
    95   49   50 1    
    96   49  115 1    
    97   50   51 1    
    98   50   52 1    
    99   50  116 1    
   100   51  117 1    
   101   51  118 1    
   102   51  119 1    
   103   52   53 2    
   104   52   54 am   BACKBONE|DICT|INTERRES
   105   54   55 1    
   106   54  120 1    
   107   55   56 1    
   108   55   57 1    
   109   55  121 1    
   110   56  122 1    
   111   56  123 1    
   112   56  124 1    
   113   57   58 2    
   114   57   59 am   BACKBONE|DICT|INTERRES
   115   59   60 1    
   116   59  125 1    
   117   60   61 1    
   118   60   62 1    
   119   60  126 1    
   120   61  127 1    
   121   61  128 1    
   122   61  129 1    
   123   62   63 2    
   124   62   64 am   BACKBONE|DICT|INTERRES
   125   64   65 1    
   126   64  130 1    
   127   65   66 1    
   128   65   69 1    
   129   65  131 1    
   130   66   67 am   BACKBONE|DICT|INTERRES
   131   66   68 2    
   132   67  132 1    
   133   67  133 1    
   134   69   70 1    
   135   69  134 1    
   136   69  135 1    
   137   70   71 1    
   138   71  136 1    
   139   71  137 1    
@<TRIPOS>SUBSTRUCTURE
     1 UNK         1 GROUP             0       ****    0 ROOT    
