@<TRIPOS>MOLECULE
3R137
137   139    1
SMALL
USER_CHARGES


@<TRIPOS>ATOM
      1 CA         31.2369   -4.8842   -5.6288 C.3       0 UNK        -0.2020 
      2 C          30.0458   -5.6139   -5.0294 C.2       0 UNK         0.4855 
      3 O          29.5619   -6.5806   -5.6181 O.2       0 UNK        -0.5197 
      4 N          29.5785   -5.1707   -3.8548 N.am      1 UNK        -0.4892 
      5 CA         28.5148   -5.8293   -3.0809 C.3       1 UNK         0.0835 
      6 C6         28.5314   -5.4193   -1.5847 C.3       12 UNK        -0.0855 
      7 S7         30.1885   -5.5130   -0.8177 S.3       12 UNK        -0.2931 
      8 C8         30.3202   -3.8968    0.0174 C.3       12 UNK         0.0378 
      9 C9         30.3528   -2.7299   -0.9620 C.ar      12 UNK        -0.0802 
     10 C10        31.5298   -2.4181   -1.6487 C.ar      12 UNK        -0.0944 
     11 C11        31.5659   -1.3364   -2.5331 C.ar      12 UNK        -0.0787 
     12 C12        30.4098   -0.5797   -2.7453 C.ar      12 UNK        -0.0862 
     13 C13        29.2289   -0.8672   -2.0529 C.ar      12 UNK        -0.0733 
     14 C14        29.2130   -1.9431   -1.1595 C.ar      12 UNK        -0.0832 
     15 C15        27.9568   -0.0510   -2.2723 C.3       12 UNK         0.0240 
     16 S16        28.1632    1.7385   -1.9491 S.3       12 UNK        -0.2522 
     17 C17        28.8124    2.4709   -3.5000 C.3       12 UNK        -0.0967 
     18 CA         28.2397    1.8817   -4.8136 C.3       5 UNK         0.0660 
     19 N          26.7763    1.9499   -4.8641 N.am      5 UNK        -0.4015 
     20 C          26.0154    1.3752   -5.8023 C.2       4 UNK         0.4946 
     21 O          26.4628    0.7821   -6.7876 O.2       4 UNK        -0.5353 
     22 CA         24.5001    1.4574   -5.5943 C.3       4 UNK         0.0277 
     23 CB         23.7643    1.8036   -6.8993 C.3       4 UNK        -0.1981 
     24 N          24.0223    0.1710   -5.0912 N.am      4 UNK        -0.4209 
     25 C          23.8099   -0.1011   -3.7968 C.2       3 UNK         0.4942 
     26 O          23.9839    0.7120   -2.8881 O.2       3 UNK        -0.5208 
     27 CA         23.3048   -1.5139   -3.4534 C.3       3 UNK         0.0250 
     28 CB         21.7758   -1.5886   -3.5989 C.3       3 UNK        -0.1990 
     29 N          23.9247   -2.5762   -4.2526 N.am      3 UNK        -0.4232 
     30 C          25.2078   -2.9443   -4.1417 C.2       2 UNK         0.4993 
     31 O          26.0101   -2.3986   -3.3813 O.2       2 UNK        -0.5286 
     32 CA         25.6697   -4.1075   -5.0353 C.3       2 UNK         0.0209 
     33 CB         25.8236   -3.6475   -6.4930 C.3       2 UNK        -0.1931 
     34 N          26.9567   -4.6160   -4.5591 N.am      2 UNK        -0.4546 
     35 C          27.1030   -5.6047   -3.6676 C.2       1 UNK         0.5154 
     36 O          26.1716   -6.3129   -3.2797 O.2       1 UNK        -0.5181 
     37 C          28.9282    2.4966   -6.0461 C.2       5 UNK         0.5014 
     38 O          29.8905    1.9147   -6.5476 O.2       5 UNK        -0.5248 
     39 N          28.4296    3.6455   -6.5177 N.am      6 UNK        -0.4434 
     40 CA         28.9841    4.3418   -7.6792 C.3       6 UNK         0.0363 
     41 CB         28.6428    5.8382   -7.5883 C.3       6 UNK        -0.1936 
     42 C          28.4920    3.7627   -9.0150 C.2       6 UNK         0.5081 
     43 O          29.2678    3.7160   -9.9692 O.2       6 UNK        -0.5248 
     44 N          27.2106    3.3745   -9.0769 N.am      7 UNK        -0.4718 
     45 CA         26.5359    3.0294  -10.3311 C.3       7 UNK         0.0273 
     46 CB         25.0801    3.5222  -10.2856 C.3       7 UNK        -0.1935 
     47 C          26.5787    1.5321  -10.6629 C.2       7 UNK         0.5018 
     48 O          26.7552    1.1934  -11.8340 O.2       7 UNK        -0.5186 
     49 N          26.3831    0.6687   -9.6571 N.am      8 UNK        -0.4240 
     50 CA         26.2516   -0.7782   -9.8427 C.3       8 UNK         0.0235 
     51 CB         25.0088   -1.2899   -9.0953 C.3       8 UNK        -0.2000 
     52 C          27.5106   -1.5195   -9.3846 C.2       8 UNK         0.4941 
     53 O          27.9966   -2.3790  -10.1206 O.2       8 UNK        -0.5273 
     54 N          28.0227   -1.1822   -8.1909 N.am      9 UNK        -0.4262 
     55 CA         29.2294   -1.8051   -7.6335 C.3       9 UNK         0.0264 
     56 CB         29.2868   -1.5844   -6.1119 C.3       9 UNK        -0.1955 
     57 C          30.5154   -1.2853   -8.3001 C.2       9 UNK         0.5031 
     58 O          31.5104   -2.0085   -8.3292 O.2       9 UNK        -0.5390 
     59 N          30.4797   -0.0346   -8.7855 N.am      10 UNK        -0.4204 
     60 CA         31.5398    0.7528   -9.4348 C.3       10 UNK         0.0237 
     61 CB         32.0604    0.0559  -10.7070 C.3       10 UNK        -0.1985 
     62 C          32.7018    1.1727   -8.5127 C.2       10 UNK         0.4970 
     63 O          33.3237    2.2037   -8.7714 O.2       10 UNK        -0.4914 
     64 N          32.9755    0.3901   -7.4652 N.am      11 UNK        -0.4285 
     65 CA         33.9864    0.6397   -6.4295 C.3       11 UNK         0.1007 
     66 C          33.7051    1.8468   -5.4869 C.2       11 UNK         0.5703 
     67 N          32.5077    2.4184   -5.4549 N.am      11 UNK        -0.7361 
     68 O          34.6050    2.2818   -4.7722 O.2       11 UNK        -0.4986 
     69 C69        34.3103   -0.6569   -5.6374 C.3       12 UNK        -0.0947 
     70 S70        32.8329   -1.5005   -4.9739 S.3       12 UNK        -0.2240 
     71 C71        32.8562   -0.9594   -3.2429 C.3       12 UNK         0.0194 
     72 H72        32.0325   -5.5916   -5.8605 H         1 UNK         0.0906 
     73 H73        30.9530   -4.3798   -6.5520 H         1 UNK         0.0906 
     74 H74        31.6401   -4.1437   -4.9399 H         1 UNK         0.0906 
     75 H75        30.0263   -4.3900   -3.3933 H         1 UNK         0.3140 
     76 H76        28.6982   -6.9054   -3.1257 H         1 UNK         0.1085 
     77 H77        28.1262   -4.4147   -1.4653 H         1 UNK         0.0836 
     78 H78        27.8672   -6.0703   -1.0128 H         1 UNK         0.0836 
     79 H79        29.4933   -3.7880    0.7212 H         1 UNK         0.0731 
     80 H80        31.2304   -3.8868    0.6189 H         1 UNK         0.0731 
     81 H81        32.4185   -3.0129   -1.4863 H         1 UNK         0.1312 
     82 H82        30.4438    0.2370   -3.4488 H         1 UNK         0.1406 
     83 H83        28.3040   -2.1752   -0.6210 H         1 UNK         0.1631 
     84 H84        27.1796   -0.3995   -1.5904 H         1 UNK         0.0717 
     85 H85        27.5534   -0.2469   -3.2627 H         1 UNK         0.0717 
     86 H86        28.6103    3.5429   -3.4559 H         1 UNK         0.0934 
     87 H87        29.9003    2.3874   -3.4813 H         1 UNK         0.0934 
     88 H88        28.4999    0.8285   -4.8490 H         1 UNK         0.0739 
     89 H89        26.3262    2.3819   -4.0693 H         1 UNK         0.3093 
     90 H90        24.2800    2.2510   -4.8767 H         1 UNK         0.0818 
     91 H91        22.6856    1.8373   -6.7457 H         1 UNK         0.0819 
     92 H92        24.0665    2.7877   -7.2572 H         1 UNK         0.0819 
     93 H93        23.9632    1.0852   -7.6940 H         1 UNK         0.0819 
     94 H94        23.8983   -0.5657   -5.7695 H         1 UNK         0.3041 
     95 H95        23.5515   -1.6999   -2.4055 H         1 UNK         0.0784 
     96 H96        21.2890   -0.8209   -2.9956 H         1 UNK         0.0793 
     97 H97        21.4580   -1.4408   -4.6318 H         1 UNK         0.0793 
     98 H98        21.3916   -2.5521   -3.2632 H         1 UNK         0.0793 
     99 H99        23.3239   -3.0710   -4.8966 H         1 UNK         0.3024 
    100 H100       24.9204   -4.9016   -4.9927 H         1 UNK         0.1171 
    101 H101       24.8549   -3.3958   -6.9248 H         1 UNK         0.0786 
    102 H102       26.2596   -4.4289   -7.1159 H         1 UNK         0.0786 
    103 H103       26.4559   -2.7649   -6.5712 H         1 UNK         0.0786 
    104 H104       27.7696   -4.0563   -4.7686 H         1 UNK         0.2977 
    105 H105       27.6415    4.0696   -6.0506 H         1 UNK         0.3127 
    106 H106       30.0729    4.2484   -7.6614 H         1 UNK         0.0770 
    107 H107       27.5660    6.0119   -7.5923 H         1 UNK         0.0814 
    108 H108       29.0634    6.3850   -8.4336 H         1 UNK         0.0814 
    109 H109       29.0522    6.2837   -6.6815 H         1 UNK         0.0814 
    110 H110       26.6461    3.4218   -8.2425 H         1 UNK         0.2983 
    111 H111       27.0242    3.5556  -11.1553 H         1 UNK         0.0947 
    112 H112       24.5861    3.3562  -11.2441 H         1 UNK         0.0806 
    113 H113       25.0269    4.5910  -10.0775 H         1 UNK         0.0806 
    114 H114       24.4948    3.0006   -9.5298 H         1 UNK         0.0806 
    115 H115       26.3107    1.0086   -8.7030 H         1 UNK         0.3000 
    116 H116       26.1064   -1.0121  -10.8998 H         1 UNK         0.0850 
    117 H117       24.8831   -2.3632   -9.2431 H         1 UNK         0.0810 
    118 H118       24.1029   -0.8066   -9.4611 H         1 UNK         0.0810 
    119 H119       25.0733   -1.1122   -8.0225 H         1 UNK         0.0810 
    120 H120       27.5478   -0.4766   -7.6307 H         1 UNK         0.3040 
    121 H121       29.1654   -2.8808   -7.8130 H         1 UNK         0.0766 
    122 H122       29.8943   -2.3512   -5.6341 H         1 UNK         0.0812 
    123 H123       28.3033   -1.6128   -5.6435 H         1 UNK         0.0812 
    124 H124       29.7555   -0.6338   -5.8656 H         1 UNK         0.0812 
    125 H125       29.6309    0.4833   -8.6048 H         1 UNK         0.3205 
    126 H126       31.0566    1.6795   -9.7466 H         1 UNK         0.0754 
    127 H127       32.7550    0.7011  -11.2464 H         1 UNK         0.0769 
    128 H128       31.2443   -0.1840  -11.3888 H         1 UNK         0.0769 
    129 H129       32.5905   -0.8690  -10.4782 H         1 UNK         0.0769 
    130 H130       32.4449   -0.4672   -7.3643 H         1 UNK         0.2981 
    131 H131       34.8996    0.9128   -6.9612 H         1 UNK         0.0541 
    132 H132       31.7408    2.0771   -6.0255 H         1 UNK         0.3459 
    133 H133       32.3665    3.2080   -4.8474 H         1 UNK         0.3459 
    134 H134       35.0248   -0.4667   -4.8343 H         1 UNK         0.0612 
    135 H135       34.8068   -1.3639   -6.3035 H         1 UNK         0.0612 
    136 H136       33.7188   -1.3997   -2.7403 H         1 UNK         0.0624 
    137 H137       32.9882    0.1222   -3.1965 H         1 UNK         0.0624 
@<TRIPOS>BOND
     1    1    2 1    
     2    1   72 1    
     3    1   73 1    
     4    1   74 1    
     5    2    3 2    
     6    2    4 am   BACKBONE|DICT|INTERRES
     7    4    5 1    
     8    4   75 1    
     9    5    6 1    
    10    5   35 1    
    11    5   76 1    
    12    6    7 1    
    13    6   77 1    
    14    6   78 1    
    15    7    8 1    
    16    8    9 1    
    17    8   79 1    
    18    8   80 1    
    19    9   10 ar   
    20    9   14 ar   
    21   10   11 ar   
    22   10   81 1    
    23   11   12 ar   
    24   11   71 1    
    25   12   13 ar   
    26   12   82 1    
    27   13   14 ar   
    28   13   15 1    
    29   14   83 1    
    30   15   16 1    
    31   15   84 1    
    32   15   85 1    
    33   16   17 1    
    34   17   18 1    
    35   17   86 1    
    36   17   87 1    
    37   18   19 1    
    38   18   37 1    
    39   18   88 1    
    40   19   20 am   BACKBONE|DICT|INTERRES
    41   19   89 1    
    42   20   21 2    
    43   20   22 1    
    44   22   23 1    
    45   22   24 1    
    46   22   90 1    
    47   23   91 1    
    48   23   92 1    
    49   23   93 1    
    50   24   25 am   BACKBONE|DICT|INTERRES
    51   24   94 1    
    52   25   26 2    
    53   25   27 1    
    54   27   28 1    
    55   27   29 1    
    56   27   95 1    
    57   28   96 1    
    58   28   97 1    
    59   28   98 1    
    60   29   30 am   BACKBONE|DICT|INTERRES
    61   29   99 1    
    62   30   31 2    
    63   30   32 1    
    64   32   33 1    
    65   32   34 1    
    66   32  100 1    
    67   33  101 1    
    68   33  102 1    
    69   33  103 1    
    70   34   35 am   BACKBONE|DICT|INTERRES
    71   34  104 1    
    72   35   36 2    
    73   37   38 2    
    74   37   39 am   BACKBONE|DICT|INTERRES
    75   39   40 1    
    76   39  105 1    
    77   40   41 1    
    78   40   42 1    
    79   40  106 1    
    80   41  107 1    
    81   41  108 1    
    82   41  109 1    
    83   42   43 2    
    84   42   44 am   BACKBONE|DICT|INTERRES
    85   44   45 1    
    86   44  110 1    
    87   45   46 1    
    88   45   47 1    
    89   45  111 1    
    90   46  112 1    
    91   46  113 1    
    92   46  114 1    
    93   47   48 2    
    94   47   49 am   BACKBONE|DICT|INTERRES
    95   49   50 1    
    96   49  115 1    
    97   50   51 1    
    98   50   52 1    
    99   50  116 1    
   100   51  117 1    
   101   51  118 1    
   102   51  119 1    
   103   52   53 2    
   104   52   54 am   BACKBONE|DICT|INTERRES
   105   54   55 1    
   106   54  120 1    
   107   55   56 1    
   108   55   57 1    
   109   55  121 1    
   110   56  122 1    
   111   56  123 1    
   112   56  124 1    
   113   57   58 2    
   114   57   59 am   BACKBONE|DICT|INTERRES
   115   59   60 1    
   116   59  125 1    
   117   60   61 1    
   118   60   62 1    
   119   60  126 1    
   120   61  127 1    
   121   61  128 1    
   122   61  129 1    
   123   62   63 2    
   124   62   64 am   BACKBONE|DICT|INTERRES
   125   64   65 1    
   126   64  130 1    
   127   65   66 1    
   128   65   69 1    
   129   65  131 1    
   130   66   67 am   BACKBONE|DICT|INTERRES
   131   66   68 2    
   132   67  132 1    
   133   67  133 1    
   134   69   70 1    
   135   69  134 1    
   136   69  135 1    
   137   70   71 1    
   138   71  136 1    
   139   71  137 1    
@<TRIPOS>SUBSTRUCTURE
     1 UNK         1 GROUP             0       ****    0 ROOT    
