@<TRIPOS>MOLECULE
3R137
137   139    1
SMALL
USER_CHARGES


@<TRIPOS>ATOM
      1 CA         24.1854   -3.9378    0.4343 C.3       0 UNK        -0.2020 
      2 C          25.2511   -3.3860   -0.5008 C.2       0 UNK         0.4855 
      3 O          25.1881   -3.6245   -1.7054 O.2       0 UNK        -0.5197 
      4 N          26.2259   -2.6486    0.0486 N.am      1 UNK        -0.4892 
      5 CA         27.3564   -2.0344   -0.6614 C.3       1 UNK         0.0835 
      6 C6         28.3174   -3.0852   -1.2821 C.3       12 UNK        -0.0855 
      7 S7         30.0619   -2.5902   -1.1115 S.3       12 UNK        -0.2931 
      8 C8         30.8976   -4.0507   -1.8004 C.3       12 UNK         0.0378 
      9 C9         31.0717   -3.9210   -3.3045 C.ar      12 UNK        -0.0802 
     10 C10        32.2338   -3.3403   -3.8169 C.ar      12 UNK        -0.0944 
     11 C11        32.4203   -3.2141   -5.1960 C.ar      12 UNK        -0.0787 
     12 C12        31.4205   -3.6750   -6.0588 C.ar      12 UNK        -0.0862 
     13 C13        30.2473   -4.2599   -5.5666 C.ar      12 UNK        -0.0733 
     14 C14        30.0883   -4.3901   -4.1807 C.ar      12 UNK        -0.0832 
     15 C15        29.2183   -4.7772   -6.5771 C.3       12 UNK         0.0240 
     16 S16        27.5445   -5.1652   -5.9413 S.3       12 UNK        -0.2522 
     17 C17        26.8941   -3.5663   -5.3440 C.3       12 UNK        -0.0967 
     18 CA         26.6534   -2.5129   -6.4631 C.3       5 UNK         0.0660 
     19 N          25.3843   -1.7920   -6.2845 N.am      5 UNK        -0.4015 
     20 C          24.9191   -0.7689   -7.0170 C.2       4 UNK         0.4946 
     21 O          25.5604   -0.2068   -7.9016 O.2       4 UNK        -0.5353 
     22 CA         23.4946   -0.2602   -6.7358 C.3       4 UNK         0.0277 
     23 CB         22.4618   -1.0134   -7.5964 C.3       4 UNK        -0.1981 
     24 N          23.1090   -0.2360   -5.3204 N.am      4 UNK        -0.4209 
     25 C          22.9031   -1.2543   -4.4769 C.2       3 UNK         0.4942 
     26 O          23.0404   -2.4400   -4.7823 O.2       3 UNK        -0.5208 
     27 CA         22.5566   -0.8553   -3.0322 C.3       3 UNK         0.0250 
     28 CB         21.9595   -2.0215   -2.2242 C.3       3 UNK        -0.1990 
     29 N          23.7455   -0.3444   -2.3467 N.am      3 UNK        -0.4232 
     30 C          24.3005    0.8594   -2.5530 C.2       2 UNK         0.4993 
     31 O          23.8174    1.7032   -3.3104 O.2       2 UNK        -0.5286 
     32 CA         25.6039    1.1925   -1.8047 C.3       2 UNK         0.0209 
     33 CB         25.3779    2.3463   -0.8129 C.3       2 UNK        -0.1931 
     34 N          26.1796    0.0546   -1.0825 N.am      2 UNK        -0.4546 
     35 C          26.8747   -0.9433   -1.6456 C.2       1 UNK         0.5154 
     36 O          27.0819   -1.0272   -2.8595 O.2       1 UNK        -0.5181 
     37 C          27.8684   -1.5792   -6.6283 C.2       5 UNK         0.5014 
     38 O          28.4560   -1.5345   -7.7120 O.2       5 UNK        -0.5248 
     39 N          28.2077   -0.8361   -5.5639 N.am      6 UNK        -0.4434 
     40 CA         29.3644    0.0599   -5.5388 C.3       6 UNK         0.0363 
     41 CB         29.5846    0.5875   -4.1131 C.3       6 UNK        -0.1936 
     42 C          29.2618    1.2224   -6.5386 C.2       6 UNK         0.5081 
     43 O          30.2845    1.6366   -7.0833 O.2       6 UNK        -0.5248 
     44 N          28.0368    1.7100   -6.7775 N.am      7 UNK        -0.4718 
     45 CA         27.7408    2.7761   -7.7341 C.3       7 UNK         0.0273 
     46 CB         26.3155    3.3035   -7.5003 C.3       7 UNK        -0.1935 
     47 C          27.9327    2.3205   -9.1887 C.2       7 UNK         0.5018 
     48 O          28.6098    3.0108   -9.9503 O.2       7 UNK        -0.5186 
     49 N          27.3628    1.1585   -9.5391 N.am      8 UNK        -0.4240 
     50 CA         27.4596    0.5452  -10.8660 C.3       8 UNK         0.0235 
     51 CB         26.4822   -0.6372  -10.9622 C.3       8 UNK        -0.2000 
     52 C          28.8862    0.0935  -11.2100 C.2       8 UNK         0.4941 
     53 O          29.3149    0.2659  -12.3516 O.2       8 UNK        -0.5273 
     54 N          29.6013   -0.4543  -10.2178 N.am      9 UNK        -0.4262 
     55 CA         31.0010   -0.8646  -10.3449 C.3       9 UNK         0.0264 
     56 CB         31.3419   -1.8233   -9.1948 C.3       9 UNK        -0.1955 
     57 C          31.9948    0.3112  -10.3616 C.2       9 UNK         0.5031 
     58 O          33.1385    0.1066  -10.7712 O.2       9 UNK        -0.5390 
     59 N          31.5642    1.4927   -9.8882 N.am      10 UNK        -0.4204 
     60 CA         32.3730    2.6873   -9.6074 C.3       10 UNK         0.0237 
     61 CB         32.9103    3.3170  -10.9102 C.3       10 UNK        -0.1985 
     62 C          33.4738    2.3865   -8.5698 C.2       10 UNK         0.4970 
     63 O          34.6404    2.7283   -8.7747 O.2       10 UNK        -0.4914 
     64 N          33.0704    1.6988   -7.4959 N.am      11 UNK        -0.4285 
     65 CA         33.9330    1.2025   -6.4206 C.3       11 UNK         0.1007 
     66 C          34.5006    2.3422   -5.5302 C.2       11 UNK         0.5703 
     67 N          35.6954    2.1658   -4.9828 N.am      11 UNK        -0.7361 
     68 O          33.8577    3.3666   -5.3051 O.2       11 UNK        -0.4986 
     69 C69        33.1862    0.1243   -5.5900 C.3       12 UNK        -0.0947 
     70 S70        34.3079   -1.1415   -4.9152 S.3       12 UNK        -0.2240 
     71 C71        33.7240   -2.6512   -5.7614 C.3       12 UNK         0.0194 
     72 H72        24.4223   -3.7481    1.4811 H         1 UNK         0.0906 
     73 H73        23.2194   -3.4832    0.2174 H         1 UNK         0.0906 
     74 H74        24.0918   -5.0153    0.3004 H         1 UNK         0.0906 
     75 H75        26.2120   -2.4919    1.0478 H         1 UNK         0.3140 
     76 H76        27.9070   -1.5010    0.1160 H         1 UNK         0.1085 
     77 H77        28.2107   -4.0384   -0.7617 H         1 UNK         0.0836 
     78 H78        28.0801   -3.2975   -2.3236 H         1 UNK         0.0836 
     79 H79        31.8732   -4.1525   -1.3225 H         1 UNK         0.0731 
     80 H80        30.3456   -4.9587   -1.5529 H         1 UNK         0.0731 
     81 H81        33.0014   -2.9958   -3.1376 H         1 UNK         0.1312 
     82 H82        31.5684   -3.6058   -7.1263 H         1 UNK         0.1406 
     83 H83        29.2056   -4.8620   -3.7741 H         1 UNK         0.1631 
     84 H84        29.6195   -5.6927   -7.0136 H         1 UNK         0.0717 
     85 H85        29.1251   -4.0752   -7.4053 H         1 UNK         0.0717 
     86 H86        25.9523   -3.8015   -4.8443 H         1 UNK         0.0934 
     87 H87        27.5340   -3.1912   -4.5460 H         1 UNK         0.0934 
     88 H88        26.5370   -3.0412   -7.4114 H         1 UNK         0.0739 
     89 H89        24.7362   -2.1832   -5.6063 H         1 UNK         0.3093 
     90 H90        23.4776    0.7839   -7.0531 H         1 UNK         0.0818 
     91 H91        21.4606   -0.6034   -7.4641 H         1 UNK         0.0819 
     92 H92        22.7078   -0.9315   -8.6561 H         1 UNK         0.0819 
     93 H93        22.4241   -2.0763   -7.3561 H         1 UNK         0.0819 
     94 H94        23.0862    0.6897   -4.9010 H         1 UNK         0.3041 
     95 H95        21.8058   -0.0629   -3.0725 H         1 UNK         0.0784 
     96 H96        21.0395   -2.3806   -2.6870 H         1 UNK         0.0793 
     97 H97        22.6424   -2.8691   -2.1677 H         1 UNK         0.0793 
     98 H98        21.7130   -1.7171   -1.2069 H         1 UNK         0.0793 
     99 H99        24.2391   -0.9969   -1.7554 H         1 UNK         0.3024 
    100 H100       26.3231    1.5242   -2.5574 H         1 UNK         0.1171 
    101 H101       24.6617    2.0770   -0.0356 H         1 UNK         0.0786 
    102 H102       24.9895    3.2301   -1.3212 H         1 UNK         0.0786 
    103 H103       26.3085    2.6400   -0.3267 H         1 UNK         0.0786 
    104 H104       26.0278    0.0325   -0.0839 H         1 UNK         0.2977 
    105 H105       27.6869   -0.9324   -4.6942 H         1 UNK         0.3127 
    106 H106       30.2334   -0.5371   -5.8176 H         1 UNK         0.0770 
    107 H107       28.7109    1.1246   -3.7427 H         1 UNK         0.0814 
    108 H108       30.4295    1.2756   -4.0730 H         1 UNK         0.0814 
    109 H109       29.7967   -0.2279   -3.4207 H         1 UNK         0.0814 
    110 H110       27.2509    1.2677   -6.3238 H         1 UNK         0.2983 
    111 H111       28.4391    3.5961   -7.5506 H         1 UNK         0.0947 
    112 H112       26.0837    4.1156   -8.1909 H         1 UNK         0.0806 
    113 H113       26.1989    3.6960   -6.4899 H         1 UNK         0.0806 
    114 H114       25.5634    2.5278   -7.6470 H         1 UNK         0.0806 
    115 H115       26.8055    0.6538   -8.8487 H         1 UNK         0.3000 
    116 H116       27.1628    1.2954  -11.6021 H         1 UNK         0.0850 
    117 H117       26.5237   -1.1018  -11.9482 H         1 UNK         0.0810 
    118 H118       25.4539   -0.3149  -10.7972 H         1 UNK         0.0810 
    119 H119       26.7111   -1.4085  -10.2250 H         1 UNK         0.0810 
    120 H120       29.1514   -0.6260   -9.3208 H         1 UNK         0.3040 
    121 H121       31.1180   -1.4059  -11.2861 H         1 UNK         0.0766 
    122 H122       32.3704   -2.1789   -9.2698 H         1 UNK         0.0812 
    123 H123       31.2317   -1.3381   -8.2240 H         1 UNK         0.0812 
    124 H124       30.6922   -2.6985   -9.2085 H         1 UNK         0.0812 
    125 H125       30.6060    1.5413   -9.5663 H         1 UNK         0.3205 
    126 H126       31.7002    3.4098   -9.1425 H         1 UNK         0.0754 
    127 H127       33.4147    4.2622  -10.7061 H         1 UNK         0.0769 
    128 H128       32.1012    3.5256  -11.6103 H         1 UNK         0.0769 
    129 H129       33.6286    2.6676  -11.4113 H         1 UNK         0.0769 
    130 H130       32.0703    1.5543   -7.3709 H         1 UNK         0.2981 
    131 H131       34.7780    0.7251   -6.9214 H         1 UNK         0.0541 
    132 H132       36.0771    2.8874   -4.3918 H         1 UNK         0.3459 
    133 H133       36.2136    1.3146   -5.1359 H         1 UNK         0.3459 
    134 H134       32.4571   -0.3885   -6.2169 H         1 UNK         0.0612 
    135 H135       32.6145    0.5678   -4.7737 H         1 UNK         0.0612 
    136 H136       33.6310   -2.4447   -6.8289 H         1 UNK         0.0624 
    137 H137       34.4943   -3.4170   -5.6639 H         1 UNK         0.0624 
@<TRIPOS>BOND
     1    1    2 1    
     2    1   72 1    
     3    1   73 1    
     4    1   74 1    
     5    2    3 2    
     6    2    4 am   BACKBONE|DICT|INTERRES
     7    4    5 1    
     8    4   75 1    
     9    5    6 1    
    10    5   35 1    
    11    5   76 1    
    12    6    7 1    
    13    6   77 1    
    14    6   78 1    
    15    7    8 1    
    16    8    9 1    
    17    8   79 1    
    18    8   80 1    
    19    9   10 ar   
    20    9   14 ar   
    21   10   11 ar   
    22   10   81 1    
    23   11   12 ar   
    24   11   71 1    
    25   12   13 ar   
    26   12   82 1    
    27   13   14 ar   
    28   13   15 1    
    29   14   83 1    
    30   15   16 1    
    31   15   84 1    
    32   15   85 1    
    33   16   17 1    
    34   17   18 1    
    35   17   86 1    
    36   17   87 1    
    37   18   19 1    
    38   18   37 1    
    39   18   88 1    
    40   19   20 am   BACKBONE|DICT|INTERRES
    41   19   89 1    
    42   20   21 2    
    43   20   22 1    
    44   22   23 1    
    45   22   24 1    
    46   22   90 1    
    47   23   91 1    
    48   23   92 1    
    49   23   93 1    
    50   24   25 am   BACKBONE|DICT|INTERRES
    51   24   94 1    
    52   25   26 2    
    53   25   27 1    
    54   27   28 1    
    55   27   29 1    
    56   27   95 1    
    57   28   96 1    
    58   28   97 1    
    59   28   98 1    
    60   29   30 am   BACKBONE|DICT|INTERRES
    61   29   99 1    
    62   30   31 2    
    63   30   32 1    
    64   32   33 1    
    65   32   34 1    
    66   32  100 1    
    67   33  101 1    
    68   33  102 1    
    69   33  103 1    
    70   34   35 am   BACKBONE|DICT|INTERRES
    71   34  104 1    
    72   35   36 2    
    73   37   38 2    
    74   37   39 am   BACKBONE|DICT|INTERRES
    75   39   40 1    
    76   39  105 1    
    77   40   41 1    
    78   40   42 1    
    79   40  106 1    
    80   41  107 1    
    81   41  108 1    
    82   41  109 1    
    83   42   43 2    
    84   42   44 am   BACKBONE|DICT|INTERRES
    85   44   45 1    
    86   44  110 1    
    87   45   46 1    
    88   45   47 1    
    89   45  111 1    
    90   46  112 1    
    91   46  113 1    
    92   46  114 1    
    93   47   48 2    
    94   47   49 am   BACKBONE|DICT|INTERRES
    95   49   50 1    
    96   49  115 1    
    97   50   51 1    
    98   50   52 1    
    99   50  116 1    
   100   51  117 1    
   101   51  118 1    
   102   51  119 1    
   103   52   53 2    
   104   52   54 am   BACKBONE|DICT|INTERRES
   105   54   55 1    
   106   54  120 1    
   107   55   56 1    
   108   55   57 1    
   109   55  121 1    
   110   56  122 1    
   111   56  123 1    
   112   56  124 1    
   113   57   58 2    
   114   57   59 am   BACKBONE|DICT|INTERRES
   115   59   60 1    
   116   59  125 1    
   117   60   61 1    
   118   60   62 1    
   119   60  126 1    
   120   61  127 1    
   121   61  128 1    
   122   61  129 1    
   123   62   63 2    
   124   62   64 am   BACKBONE|DICT|INTERRES
   125   64   65 1    
   126   64  130 1    
   127   65   66 1    
   128   65   69 1    
   129   65  131 1    
   130   66   67 am   BACKBONE|DICT|INTERRES
   131   66   68 2    
   132   67  132 1    
   133   67  133 1    
   134   69   70 1    
   135   69  134 1    
   136   69  135 1    
   137   70   71 1    
   138   71  136 1    
   139   71  137 1    
@<TRIPOS>SUBSTRUCTURE
     1 UNK         1 GROUP             0       ****    0 ROOT    
