@<TRIPOS>MOLECULE
3R137
137   139    1
SMALL
USER_CHARGES


@<TRIPOS>ATOM
      1 CA         30.8325   -1.4942    1.0068 C.3       0 UNK        -0.2020 
      2 C          29.6517   -1.1612    1.9154 C.2       0 UNK         0.4855 
      3 O          29.8640   -0.8033    3.0724 O.2       0 UNK        -0.5197 
      4 N          28.4003   -1.2551    1.4520 N.am      1 UNK        -0.4892 
      5 CA         27.9576   -1.6269    0.1090 C.3       1 UNK         0.0835 
      6 C6         28.0175   -3.1595   -0.1370 C.3       12 UNK        -0.0855 
      7 S7         28.1386   -3.5498   -1.9138 S.3       12 UNK        -0.2931 
      8 C8         29.9107   -3.9247   -2.0828 C.3       12 UNK         0.0378 
      9 C9         30.3208   -3.9982   -3.5456 C.ar      12 UNK        -0.0802 
     10 C10        31.3454   -3.1834   -4.0341 C.ar      12 UNK        -0.0944 
     11 C11        31.7188   -3.2371   -5.3814 C.ar      12 UNK        -0.0787 
     12 C12        31.0524   -4.1165   -6.2435 C.ar      12 UNK        -0.0862 
     13 C13        30.0352   -4.9479   -5.7618 C.ar      12 UNK        -0.0733 
     14 C14        29.6830   -4.8897   -4.4115 C.ar      12 UNK        -0.0832 
     15 C15        29.3347   -5.9387   -6.6820 C.3       12 UNK         0.0240 
     16 S16        28.1717   -5.1444   -7.8363 S.3       12 UNK        -0.2522 
     17 C17        26.9435   -4.3634   -6.7279 C.3       12 UNK        -0.0967 
     18 CA         26.5369   -2.9560   -7.2317 C.3       5 UNK         0.0660 
     19 N          25.2624   -2.4936   -6.6810 N.am      5 UNK        -0.4015 
     20 C          24.0799   -2.6930   -7.2830 C.2       4 UNK         0.4946 
     21 O          23.9365   -3.3802   -8.2956 O.2       4 UNK        -0.5353 
     22 CA         22.8328   -2.0139   -6.6822 C.3       4 UNK         0.0277 
     23 CB         21.9952   -3.0362   -5.8958 C.3       4 UNK        -0.1981 
     24 N          23.1150   -0.8674   -5.8165 N.am      4 UNK        -0.4209 
     25 C          23.7626    0.2517   -6.1705 C.2       3 UNK         0.4942 
     26 O          24.1682    0.4820   -7.3093 O.2       3 UNK        -0.5208 
     27 CA         24.0605    1.2653   -5.0506 C.3       3 UNK         0.0250 
     28 CB         23.0699    2.4389   -5.1100 C.3       3 UNK        -0.1990 
     29 N          24.0723    0.7057   -3.6933 N.am      3 UNK        -0.4232 
     30 C          24.8753   -0.2772   -3.2635 C.2       2 UNK         0.4993 
     31 O          25.6526   -0.9057   -3.9922 O.2       2 UNK        -0.5286 
     32 CA         24.7545   -0.6485   -1.7845 C.3       2 UNK         0.0209 
     33 CB         23.6759   -1.7265   -1.5787 C.3       2 UNK        -0.1931 
     34 N          26.0463   -1.1514   -1.3378 N.am      2 UNK        -0.4546 
     35 C          26.5425   -1.0538   -0.1022 C.2       1 UNK         0.5154 
     36 O          25.9332   -0.5444    0.8443 O.2       1 UNK        -0.5181 
     37 C          27.6470   -1.9081   -7.0506 C.2       5 UNK         0.5014 
     38 O          28.3748   -1.6575   -8.0109 O.2       5 UNK        -0.5248 
     39 N          27.7637   -1.2873   -5.8662 N.am      6 UNK        -0.4434 
     40 CA         28.8746   -0.3838   -5.5467 C.3       6 UNK         0.0363 
     41 CB         28.8694   -0.0408   -4.0489 C.3       6 UNK        -0.1936 
     42 C          28.8989    0.8890   -6.4087 C.2       6 UNK         0.5081 
     43 O          29.9573    1.2594   -6.9173 O.2       6 UNK        -0.5248 
     44 N          27.7267    1.5101   -6.6015 N.am      7 UNK        -0.4718 
     45 CA         27.5671    2.6884   -7.4614 C.3       7 UNK         0.0273 
     46 CB         26.2777    3.4414   -7.0993 C.3       7 UNK        -0.1935 
     47 C          27.5849    2.3370   -8.9582 C.2       7 UNK         0.5018 
     48 O          27.9986    3.1731   -9.7607 O.2       7 UNK        -0.5186 
     49 N          27.1599    1.1131   -9.3064 N.am      8 UNK        -0.4240 
     50 CA         27.2089    0.5750  -10.6684 C.3       8 UNK         0.0235 
     51 CB         26.3350   -0.6863  -10.7658 C.3       8 UNK        -0.2000 
     52 C          28.6519    0.2898  -11.1175 C.2       8 UNK         0.4941 
     53 O          29.0207    0.6507  -12.2356 O.2       8 UNK        -0.5273 
     54 N          29.4492   -0.3162  -10.2257 N.am      9 UNK        -0.4262 
     55 CA         30.8906   -0.5164  -10.3916 C.3       9 UNK         0.0264 
     56 CB         31.3802   -1.5285   -9.3425 C.3       9 UNK        -0.1955 
     57 C          31.6919    0.7932  -10.2790 C.2       9 UNK         0.5031 
     58 O          32.7668    0.8897  -10.8726 O.2       9 UNK        -0.5390 
     59 N          31.1599    1.7571   -9.5115 N.am      10 UNK        -0.4204 
     60 CA         31.7425    3.0553   -9.1539 C.3       10 UNK         0.0237 
     61 CB         31.9204    3.9523  -10.3974 C.3       10 UNK        -0.1985 
     62 C          33.0256    2.9070   -8.3139 C.2       10 UNK         0.4970 
     63 O          33.9633    3.6916   -8.4719 O.2       10 UNK        -0.4914 
     64 N          33.0431    1.8901   -7.4448 N.am      11 UNK        -0.4285 
     65 CA         34.1450    1.5812   -6.5275 C.3       11 UNK         0.1007 
     66 C          34.1459    2.4775   -5.2568 C.2       11 UNK         0.5703 
     67 N          35.2460    2.4945   -4.5155 N.am      11 UNK        -0.7361 
     68 O          33.1692    3.1497   -4.9282 O.2       11 UNK        -0.4986 
     69 C69        34.1998    0.0637   -6.2046 C.3       12 UNK        -0.0947 
     70 S70        32.6491   -0.6130   -5.5245 S.3       12 UNK        -0.2240 
     71 C71        32.8725   -2.3820   -5.8918 C.3       12 UNK         0.0194 
     72 H72        30.9082   -2.5689    0.8499 H         1 UNK         0.0906 
     73 H73        30.7556   -0.9977    0.0407 H         1 UNK         0.0906 
     74 H74        31.7646   -1.1638    1.4647 H         1 UNK         0.0906 
     75 H75        27.6271   -0.9713    2.0439 H         1 UNK         0.3140 
     76 H76        28.5985   -1.1127   -0.6095 H         1 UNK         0.1085 
     77 H77        28.8692   -3.6086    0.3739 H         1 UNK         0.0836 
     78 H78        27.1414   -3.6610    0.2793 H         1 UNK         0.0836 
     79 H79        30.1322   -4.8742   -1.5936 H         1 UNK         0.0731 
     80 H80        30.4888   -3.1587   -1.5645 H         1 UNK         0.0731 
     81 H81        31.8582   -2.5044   -3.3666 H         1 UNK         0.1312 
     82 H82        31.3321   -4.1680   -7.2869 H         1 UNK         0.1406 
     83 H83        28.9000   -5.5313   -4.0301 H         1 UNK         0.1631 
     84 H84        28.7980   -6.6927   -6.1041 H         1 UNK         0.0717 
     85 H85        30.0848   -6.4798   -7.2604 H         1 UNK         0.0717 
     86 H86        26.0709   -5.0181   -6.7080 H         1 UNK         0.0934 
     87 H87        27.3047   -4.3185   -5.7003 H         1 UNK         0.0934 
     88 H88        26.4080   -3.0321   -8.3138 H         1 UNK         0.0739 
     89 H89        25.2968   -1.9192   -5.8468 H         1 UNK         0.3093 
     90 H90        22.2342   -1.6487   -7.5192 H         1 UNK         0.0818 
     91 H91        21.0579   -2.6009   -5.5489 H         1 UNK         0.0819 
     92 H92        21.7386   -3.8939   -6.5194 H         1 UNK         0.0819 
     93 H93        22.5335   -3.4157   -5.0262 H         1 UNK         0.0819 
     94 H94        22.8276   -0.9530   -4.8529 H         1 UNK         0.3041 
     95 H95        25.0616    1.6555   -5.2330 H         1 UNK         0.0784 
     96 H96        23.0570    2.8916   -6.1027 H         1 UNK         0.0793 
     97 H97        22.0515    2.1194   -4.8852 H         1 UNK         0.0793 
     98 H98        23.3406    3.2242   -4.4040 H         1 UNK         0.0793 
     99 H99        23.4487    1.1434   -3.0294 H         1 UNK         0.3024 
    100 H100       24.4960    0.2477   -1.2151 H         1 UNK         0.1171 
    101 H101       22.6974   -1.3739   -1.9071 H         1 UNK         0.0786 
    102 H102       23.9033   -2.6348   -2.1388 H         1 UNK         0.0786 
    103 H103       23.5839   -1.9984   -0.5269 H         1 UNK         0.0786 
    104 H104       26.6022   -1.5846   -2.0668 H         1 UNK         0.2977 
    105 H105       27.0995   -1.4617   -5.1175 H         1 UNK         0.3127 
    106 H106       29.7934   -0.9329   -5.7574 H         1 UNK         0.0770 
    107 H107       27.9722    0.5060   -3.7583 H         1 UNK         0.0814 
    108 H108       29.7289    0.5804   -3.7932 H         1 UNK         0.0814 
    109 H109       28.9311   -0.9418   -3.4390 H         1 UNK         0.0814 
    110 H110       26.8997    1.1279   -6.1682 H         1 UNK         0.2983 
    111 H111       28.4076    3.3615   -7.2753 H         1 UNK         0.0947 
    112 H112       26.2074    4.3744   -7.6602 H         1 UNK         0.0806 
    113 H113       26.2476    3.7005   -6.0410 H         1 UNK         0.0806 
    114 H114       25.3875    2.8599   -7.3369 H         1 UNK         0.0806 
    115 H115       26.8364    0.4931   -8.5785 H         1 UNK         0.3000 
    116 H116       26.7920    1.3274  -11.3417 H         1 UNK         0.0850 
    117 H117       26.2930   -1.0488  -11.7936 H         1 UNK         0.0810 
    118 H118       25.3106   -0.4870  -10.4496 H         1 UNK         0.0810 
    119 H119       26.7224   -1.4996  -10.1530 H         1 UNK         0.0810 
    120 H120       29.0418   -0.6644   -9.3574 H         1 UNK         0.3040 
    121 H121       31.0679   -0.9334  -11.3851 H         1 UNK         0.0766 
    122 H122       31.2019   -1.1715   -8.3269 H         1 UNK         0.0812 
    123 H123       32.4507   -1.7120   -9.4429 H         1 UNK         0.0812 
    124 H124       30.8727   -2.4875   -9.4492 H         1 UNK         0.0812 
    125 H125       30.3200    1.5191   -8.9969 H         1 UNK         0.3205 
    126 H126       31.0132    3.5399   -8.5030 H         1 UNK         0.0754 
    127 H127       32.2180    4.9618  -10.1114 H         1 UNK         0.0769 
    128 H128       30.9893    4.0362  -10.9585 H         1 UNK         0.0769 
    129 H129       32.6858    3.5668  -11.0713 H         1 UNK         0.0769 
    130 H130       32.1952    1.3532   -7.3094 H         1 UNK         0.2981 
    131 H131       35.0722    1.8180   -7.0533 H         1 UNK         0.0541 
    132 H132       36.0555    1.9498   -4.7687 H         1 UNK         0.3459 
    133 H133       35.2669    3.0658   -3.6854 H         1 UNK         0.3459 
    134 H134       35.0124   -0.1614   -5.5120 H         1 UNK         0.0612 
    135 H135       34.4345   -0.4805   -7.1208 H         1 UNK         0.0612 
    136 H136       33.7975   -2.7277   -5.4286 H         1 UNK         0.0624 
    137 H137       32.9966   -2.5062   -6.9682 H         1 UNK         0.0624 
@<TRIPOS>BOND
     1    1    2 1    
     2    1   72 1    
     3    1   73 1    
     4    1   74 1    
     5    2    3 2    
     6    2    4 am   BACKBONE|DICT|INTERRES
     7    4    5 1    
     8    4   75 1    
     9    5    6 1    
    10    5   35 1    
    11    5   76 1    
    12    6    7 1    
    13    6   77 1    
    14    6   78 1    
    15    7    8 1    
    16    8    9 1    
    17    8   79 1    
    18    8   80 1    
    19    9   10 ar   
    20    9   14 ar   
    21   10   11 ar   
    22   10   81 1    
    23   11   12 ar   
    24   11   71 1    
    25   12   13 ar   
    26   12   82 1    
    27   13   14 ar   
    28   13   15 1    
    29   14   83 1    
    30   15   16 1    
    31   15   84 1    
    32   15   85 1    
    33   16   17 1    
    34   17   18 1    
    35   17   86 1    
    36   17   87 1    
    37   18   19 1    
    38   18   37 1    
    39   18   88 1    
    40   19   20 am   BACKBONE|DICT|INTERRES
    41   19   89 1    
    42   20   21 2    
    43   20   22 1    
    44   22   23 1    
    45   22   24 1    
    46   22   90 1    
    47   23   91 1    
    48   23   92 1    
    49   23   93 1    
    50   24   25 am   BACKBONE|DICT|INTERRES
    51   24   94 1    
    52   25   26 2    
    53   25   27 1    
    54   27   28 1    
    55   27   29 1    
    56   27   95 1    
    57   28   96 1    
    58   28   97 1    
    59   28   98 1    
    60   29   30 am   BACKBONE|DICT|INTERRES
    61   29   99 1    
    62   30   31 2    
    63   30   32 1    
    64   32   33 1    
    65   32   34 1    
    66   32  100 1    
    67   33  101 1    
    68   33  102 1    
    69   33  103 1    
    70   34   35 am   BACKBONE|DICT|INTERRES
    71   34  104 1    
    72   35   36 2    
    73   37   38 2    
    74   37   39 am   BACKBONE|DICT|INTERRES
    75   39   40 1    
    76   39  105 1    
    77   40   41 1    
    78   40   42 1    
    79   40  106 1    
    80   41  107 1    
    81   41  108 1    
    82   41  109 1    
    83   42   43 2    
    84   42   44 am   BACKBONE|DICT|INTERRES
    85   44   45 1    
    86   44  110 1    
    87   45   46 1    
    88   45   47 1    
    89   45  111 1    
    90   46  112 1    
    91   46  113 1    
    92   46  114 1    
    93   47   48 2    
    94   47   49 am   BACKBONE|DICT|INTERRES
    95   49   50 1    
    96   49  115 1    
    97   50   51 1    
    98   50   52 1    
    99   50  116 1    
   100   51  117 1    
   101   51  118 1    
   102   51  119 1    
   103   52   53 2    
   104   52   54 am   BACKBONE|DICT|INTERRES
   105   54   55 1    
   106   54  120 1    
   107   55   56 1    
   108   55   57 1    
   109   55  121 1    
   110   56  122 1    
   111   56  123 1    
   112   56  124 1    
   113   57   58 2    
   114   57   59 am   BACKBONE|DICT|INTERRES
   115   59   60 1    
   116   59  125 1    
   117   60   61 1    
   118   60   62 1    
   119   60  126 1    
   120   61  127 1    
   121   61  128 1    
   122   61  129 1    
   123   62   63 2    
   124   62   64 am   BACKBONE|DICT|INTERRES
   125   64   65 1    
   126   64  130 1    
   127   65   66 1    
   128   65   69 1    
   129   65  131 1    
   130   66   67 am   BACKBONE|DICT|INTERRES
   131   66   68 2    
   132   67  132 1    
   133   67  133 1    
   134   69   70 1    
   135   69  134 1    
   136   69  135 1    
   137   70   71 1    
   138   71  136 1    
   139   71  137 1    
@<TRIPOS>SUBSTRUCTURE
     1 UNK         1 GROUP             0       ****    0 ROOT    
