@<TRIPOS>MOLECULE
3R137
137   139    1
SMALL
USER_CHARGES


@<TRIPOS>ATOM
      1 CA         24.7872   -2.3733    1.4567 C.3       0 UNK        -0.2020 
      2 C          26.0925   -2.6340    0.7202 C.2       0 UNK         0.4855 
      3 O          27.1373   -2.1399    1.1399 O.2       0 UNK        -0.5197 
      4 N          26.0350   -3.4070   -0.3678 N.am      1 UNK        -0.4892 
      5 CA         27.1341   -3.7512   -1.2685 C.3       1 UNK         0.0835 
      6 C6         28.1523   -4.7287   -0.6137 C.3       12 UNK        -0.0855 
      7 S7         29.6797   -5.0146   -1.5833 S.3       12 UNK        -0.2931 
      8 C8         30.8979   -3.9327   -0.7711 C.3       12 UNK         0.0378 
      9 C9         30.8649   -2.5187   -1.3330 C.ar      12 UNK        -0.0802 
     10 C10        31.7604   -2.1319   -2.3347 C.ar      12 UNK        -0.0944 
     11 C11        31.7670   -0.8179   -2.8149 C.ar      12 UNK        -0.0787 
     12 C12        30.8462    0.1051   -2.3066 C.ar      12 UNK        -0.0862 
     13 C13        29.9328   -0.2762   -1.3163 C.ar      12 UNK        -0.0733 
     14 C14        29.9630   -1.5830   -0.8243 C.ar      12 UNK        -0.0832 
     15 C15        28.9365    0.7197   -0.7366 C.3       12 UNK         0.0240 
     16 S16        27.3335    0.6773   -1.6061 S.3       12 UNK        -0.2522 
     17 C17        27.7228    1.5972   -3.1308 C.3       12 UNK        -0.0967 
     18 CA         27.6224    0.6889   -4.3929 C.3       5 UNK         0.0660 
     19 N          26.2480    0.2902   -4.7240 N.am      5 UNK        -0.4015 
     20 C          25.2411    1.1075   -5.0760 C.2       4 UNK         0.4946 
     21 O          25.3206    2.3378   -5.0693 O.2       4 UNK        -0.5353 
     22 CA         23.9442    0.4359   -5.5595 C.3       4 UNK         0.0277 
     23 CB         23.0053    1.4008   -6.3108 C.3       4 UNK        -0.1981 
     24 N          24.2755   -0.6970   -6.4191 N.am      4 UNK        -0.4209 
     25 C          23.6587   -1.8833   -6.4242 C.2       3 UNK         0.4942 
     26 O          22.6474   -2.1405   -5.7697 O.2       3 UNK        -0.5208 
     27 CA         24.3015   -2.9910   -7.2833 C.3       3 UNK         0.0250 
     28 CB         25.1388   -2.4560   -8.4668 C.3       3 UNK        -0.1990 
     29 N          25.1048   -3.9213   -6.4794 N.am      3 UNK        -0.4232 
     30 C          26.0901   -3.6110   -5.6234 C.2       2 UNK         0.4993 
     31 O          26.4637   -2.4613   -5.3748 O.2       2 UNK        -0.5286 
     32 CA         26.8152   -4.7903   -4.9605 C.3       2 UNK         0.0209 
     33 CB         28.0285   -5.2124   -5.8052 C.3       2 UNK        -0.1931 
     34 N          27.2770   -4.4201   -3.6242 N.am      2 UNK        -0.4546 
     35 C          26.4862   -4.3056   -2.5528 C.2       1 UNK         0.5154 
     36 O          25.2882   -4.6122   -2.5550 O.2       1 UNK        -0.5181 
     37 C          28.3365    1.2518   -5.6434 C.2       5 UNK         0.5014 
     38 O          27.8985    0.9941   -6.7686 O.2       5 UNK        -0.5248 
     39 N          29.4347    1.9948   -5.4465 N.am      6 UNK        -0.4434 
     40 CA         30.3334    2.5166   -6.4843 C.3       6 UNK         0.0363 
     41 CB         31.5134    3.2258   -5.7993 C.3       6 UNK        -0.1936 
     42 C          29.6880    3.4373   -7.5409 C.2       6 UNK         0.5081 
     43 O          30.3188    3.7158   -8.5607 O.2       6 UNK        -0.5248 
     44 N          28.4490    3.8837   -7.2976 N.am      7 UNK        -0.4718 
     45 CA         27.6102    4.5937   -8.2622 C.3       7 UNK         0.0273 
     46 CB         26.4210    5.2214   -7.5166 C.3       7 UNK        -0.1935 
     47 C          27.1068    3.6989   -9.4129 C.2       7 UNK         0.5018 
     48 O          26.7457    4.2393  -10.4597 O.2       7 UNK        -0.5186 
     49 N          27.0714    2.3729   -9.2090 N.am      8 UNK        -0.4240 
     50 CA         26.5769    1.3999  -10.1885 C.3       8 UNK         0.0235 
     51 CB         25.1156    1.0487   -9.8619 C.3       8 UNK        -0.2000 
     52 C          27.4406    0.1312  -10.2884 C.2       8 UNK         0.4941 
     53 O          27.4729   -0.4754  -11.3604 O.2       8 UNK        -0.5273 
     54 N          28.1097   -0.2677   -9.1981 N.am      9 UNK        -0.4262 
     55 CA         29.0096   -1.4217   -9.1467 C.3       9 UNK         0.0264 
     56 CB         29.2520   -1.7981   -7.6751 C.3       9 UNK        -0.1955 
     57 C          30.3506   -1.1396   -9.8425 C.2       9 UNK         0.5031 
     58 O          30.7130    0.0203  -10.0557 O.2       9 UNK        -0.5390 
     59 N          31.0991   -2.2161  -10.1218 N.am      10 UNK        -0.4204 
     60 CA         32.4298   -2.1906  -10.7435 C.3       10 UNK         0.0237 
     61 CB         32.9053   -3.6339  -10.9782 C.3       10 UNK        -0.1985 
     62 C          33.4929   -1.3955   -9.9596 C.2       10 UNK         0.4970 
     63 O          34.4538   -0.9248  -10.5697 O.2       10 UNK        -0.4914 
     64 N          33.2989   -1.2439   -8.6425 N.am      11 UNK        -0.4285 
     65 CA         34.0907   -0.3589   -7.7775 C.3       11 UNK         0.1007 
     66 C          33.8078    1.1634   -7.9570 C.2       11 UNK         0.5703 
     67 N          32.8253    1.5770   -8.7495 N.am      11 UNK        -0.7361 
     68 O          34.5113    1.9873   -7.3778 O.2       11 UNK        -0.4986 
     69 C69        34.0444   -0.8135   -6.2945 C.3       12 UNK        -0.0947 
     70 S70        32.3807   -0.8429   -5.5343 S.3       12 UNK        -0.2240 
     71 C71        32.8200   -0.3887   -3.8272 C.3       12 UNK         0.0194 
     72 H72        24.5755   -1.3045    1.4754 H         1 UNK         0.0906 
     73 H73        23.9441   -2.8781    0.9852 H         1 UNK         0.0906 
     74 H74        24.8605   -2.7245    2.4856 H         1 UNK         0.0906 
     75 H75        25.1467   -3.7715   -0.6972 H         1 UNK         0.3140 
     76 H76        27.6363   -2.8222   -1.5420 H         1 UNK         0.1085 
     77 H77        28.4394   -4.3650    0.3733 H         1 UNK         0.0836 
     78 H78        27.6785   -5.6956   -0.4346 H         1 UNK         0.0836 
     79 H79        30.7361   -3.9194    0.3078 H         1 UNK         0.0731 
     80 H80        31.8902   -4.3624   -0.9168 H         1 UNK         0.0731 
     81 H81        32.4735   -2.8463   -2.7235 H         1 UNK         0.1312 
     82 H82        30.8622    1.1246   -2.6630 H         1 UNK         0.1406 
     83 H83        29.2836   -1.8735   -0.0369 H         1 UNK         0.1631 
     84 H84        29.3467    1.7305   -0.7525 H         1 UNK         0.0717 
     85 H85        28.7602    0.4876    0.3151 H         1 UNK         0.0717 
     86 H86        27.0496    2.4521   -3.2006 H         1 UNK         0.0934 
     87 H87        28.7130    2.0311   -3.0082 H         1 UNK         0.0934 
     88 H88        28.1517   -0.2409   -4.1762 H         1 UNK         0.0739 
     89 H89        26.1257   -0.7143   -4.8423 H         1 UNK         0.3093 
     90 H90        23.4313    0.0794   -4.6636 H         1 UNK         0.0818 
     91 H91        22.0965    0.8958   -6.6381 H         1 UNK         0.0819 
     92 H92        22.7013    2.2291   -5.6697 H         1 UNK         0.0819 
     93 H93        23.4880    1.8283   -7.1902 H         1 UNK         0.0819 
     94 H94        25.1361   -0.6119   -6.9422 H         1 UNK         0.3041 
     95 H95        23.4771   -3.5708   -7.7015 H         1 UNK         0.0784 
     96 H96        24.5471   -1.7901   -9.0952 H         1 UNK         0.0793 
     97 H97        26.0244   -1.9127   -8.1385 H         1 UNK         0.0793 
     98 H98        25.4789   -3.2724   -9.1040 H         1 UNK         0.0793 
     99 H99        24.8635   -4.8965   -6.5897 H         1 UNK         0.3024 
    100 H100       26.1271   -5.6345   -4.8745 H         1 UNK         0.1171 
    101 H101       27.7242   -5.5070   -6.8105 H         1 UNK         0.0786 
    102 H102       28.5441   -6.0638   -5.3603 H         1 UNK         0.0786 
    103 H103       28.7500   -4.4006   -5.9077 H         1 UNK         0.0786 
    104 H104       28.2485   -4.1559   -3.5357 H         1 UNK         0.2977 
    105 H105       29.7196    2.1795   -4.4977 H         1 UNK         0.3127 
    106 H106       30.7186    1.6504   -7.0249 H         1 UNK         0.0770 
    107 H107       31.1803    4.0625   -5.1844 H         1 UNK         0.0814 
    108 H108       32.2143    3.6232   -6.5347 H         1 UNK         0.0814 
    109 H109       32.0758    2.5400   -5.1662 H         1 UNK         0.0814 
    110 H110       28.0047    3.5978   -6.4369 H         1 UNK         0.2983 
    111 H111       28.2028    5.3962   -8.7071 H         1 UNK         0.0947 
    112 H112       25.7827    5.7824   -8.2007 H         1 UNK         0.0806 
    113 H113       26.7564    5.9157   -6.7460 H         1 UNK         0.0806 
    114 H114       25.7991    4.4628   -7.0385 H         1 UNK         0.0806 
    115 H115       27.3930    2.0108   -8.3158 H         1 UNK         0.3000 
    116 H116       26.5992    1.8463  -11.1852 H         1 UNK         0.0850 
    117 H117       24.7252    0.3026  -10.5552 H         1 UNK         0.0810 
    118 H118       25.0171    0.6494   -8.8535 H         1 UNK         0.0810 
    119 H119       24.4732    1.9262   -9.9363 H         1 UNK         0.0810 
    120 H120       28.0401    0.2688   -8.3353 H         1 UNK         0.3040 
    121 H121       28.5234   -2.2603   -9.6499 H         1 UNK         0.0766 
    122 H122       29.7897   -1.0124   -7.1437 H         1 UNK         0.0812 
    123 H123       29.8399   -2.7120   -7.5861 H         1 UNK         0.0812 
    124 H124       28.3139   -1.9682   -7.1499 H         1 UNK         0.0812 
    125 H125       30.7281   -3.1295   -9.9016 H         1 UNK         0.3205 
    126 H126       32.3223   -1.7041  -11.7153 H         1 UNK         0.0754 
    127 H127       33.8804   -3.6497  -11.4675 H         1 UNK         0.0769 
    128 H128       32.2155   -4.1809  -11.6215 H         1 UNK         0.0769 
    129 H129       33.0023   -4.1847  -10.0416 H         1 UNK         0.0769 
    130 H130       32.4822   -1.6555   -8.2181 H         1 UNK         0.2981 
    131 H131       35.1306   -0.4762   -8.0883 H         1 UNK         0.0541 
    132 H132       32.2132    0.9203   -9.2243 H         1 UNK         0.3459 
    133 H133       32.6535    2.5647   -8.8492 H         1 UNK         0.3459 
    134 H134       34.7050   -0.1824   -5.6971 H         1 UNK         0.0612 
    135 H135       34.4568   -1.8203   -6.2133 H         1 UNK         0.0612 
    136 H136       33.7693   -0.8571   -3.5620 H         1 UNK         0.0624 
    137 H137       32.9884    0.6878   -3.7762 H         1 UNK         0.0624 
@<TRIPOS>BOND
     1    1    2 1    
     2    1   72 1    
     3    1   73 1    
     4    1   74 1    
     5    2    3 2    
     6    2    4 am   BACKBONE|DICT|INTERRES
     7    4    5 1    
     8    4   75 1    
     9    5    6 1    
    10    5   35 1    
    11    5   76 1    
    12    6    7 1    
    13    6   77 1    
    14    6   78 1    
    15    7    8 1    
    16    8    9 1    
    17    8   79 1    
    18    8   80 1    
    19    9   10 ar   
    20    9   14 ar   
    21   10   11 ar   
    22   10   81 1    
    23   11   12 ar   
    24   11   71 1    
    25   12   13 ar   
    26   12   82 1    
    27   13   14 ar   
    28   13   15 1    
    29   14   83 1    
    30   15   16 1    
    31   15   84 1    
    32   15   85 1    
    33   16   17 1    
    34   17   18 1    
    35   17   86 1    
    36   17   87 1    
    37   18   19 1    
    38   18   37 1    
    39   18   88 1    
    40   19   20 am   BACKBONE|DICT|INTERRES
    41   19   89 1    
    42   20   21 2    
    43   20   22 1    
    44   22   23 1    
    45   22   24 1    
    46   22   90 1    
    47   23   91 1    
    48   23   92 1    
    49   23   93 1    
    50   24   25 am   BACKBONE|DICT|INTERRES
    51   24   94 1    
    52   25   26 2    
    53   25   27 1    
    54   27   28 1    
    55   27   29 1    
    56   27   95 1    
    57   28   96 1    
    58   28   97 1    
    59   28   98 1    
    60   29   30 am   BACKBONE|DICT|INTERRES
    61   29   99 1    
    62   30   31 2    
    63   30   32 1    
    64   32   33 1    
    65   32   34 1    
    66   32  100 1    
    67   33  101 1    
    68   33  102 1    
    69   33  103 1    
    70   34   35 am   BACKBONE|DICT|INTERRES
    71   34  104 1    
    72   35   36 2    
    73   37   38 2    
    74   37   39 am   BACKBONE|DICT|INTERRES
    75   39   40 1    
    76   39  105 1    
    77   40   41 1    
    78   40   42 1    
    79   40  106 1    
    80   41  107 1    
    81   41  108 1    
    82   41  109 1    
    83   42   43 2    
    84   42   44 am   BACKBONE|DICT|INTERRES
    85   44   45 1    
    86   44  110 1    
    87   45   46 1    
    88   45   47 1    
    89   45  111 1    
    90   46  112 1    
    91   46  113 1    
    92   46  114 1    
    93   47   48 2    
    94   47   49 am   BACKBONE|DICT|INTERRES
    95   49   50 1    
    96   49  115 1    
    97   50   51 1    
    98   50   52 1    
    99   50  116 1    
   100   51  117 1    
   101   51  118 1    
   102   51  119 1    
   103   52   53 2    
   104   52   54 am   BACKBONE|DICT|INTERRES
   105   54   55 1    
   106   54  120 1    
   107   55   56 1    
   108   55   57 1    
   109   55  121 1    
   110   56  122 1    
   111   56  123 1    
   112   56  124 1    
   113   57   58 2    
   114   57   59 am   BACKBONE|DICT|INTERRES
   115   59   60 1    
   116   59  125 1    
   117   60   61 1    
   118   60   62 1    
   119   60  126 1    
   120   61  127 1    
   121   61  128 1    
   122   61  129 1    
   123   62   63 2    
   124   62   64 am   BACKBONE|DICT|INTERRES
   125   64   65 1    
   126   64  130 1    
   127   65   66 1    
   128   65   69 1    
   129   65  131 1    
   130   66   67 am   BACKBONE|DICT|INTERRES
   131   66   68 2    
   132   67  132 1    
   133   67  133 1    
   134   69   70 1    
   135   69  134 1    
   136   69  135 1    
   137   70   71 1    
   138   71  136 1    
   139   71  137 1    
@<TRIPOS>SUBSTRUCTURE
     1 UNK         1 GROUP             0       ****    0 ROOT    
