@<TRIPOS>MOLECULE
3R137
137   139    1
SMALL
USER_CHARGES


@<TRIPOS>ATOM
      1 CA         25.9498   -5.0589   -4.4852 C.3       0 UNK        -0.2020 
      2 C          25.9232   -3.9945   -3.3997 C.2       0 UNK         0.4855 
      3 O          24.9058   -3.3237   -3.2241 O.2       0 UNK        -0.5197 
      4 N          27.0365   -3.8431   -2.6706 N.am      1 UNK        -0.4892 
      5 CA         27.1932   -2.9474   -1.5186 C.3       1 UNK         0.0835 
      6 C6         28.5719   -3.1053   -0.8295 C.3       12 UNK        -0.0855 
      7 S7         28.8874   -4.8323   -0.3161 S.3       12 UNK        -0.2931 
      8 C8         30.6614   -5.0538   -0.6956 C.3       12 UNK         0.0378 
      9 C9         31.0298   -4.7206   -2.1384 C.ar      12 UNK        -0.0802 
     10 C10        32.1428   -3.9158   -2.4001 C.ar      12 UNK        -0.0944 
     11 C11        32.4847   -3.5830   -3.7130 C.ar      12 UNK        -0.0787 
     12 C12        31.7007   -4.0524   -4.7698 C.ar      12 UNK        -0.0862 
     13 C13        30.5680   -4.8354   -4.5227 C.ar      12 UNK        -0.0733 
     14 C14        30.2613   -5.1954   -3.2070 C.ar      12 UNK        -0.0832 
     15 C15        29.6638   -5.2976   -5.6608 C.3       12 UNK         0.0240 
     16 S16        29.3091   -4.0086   -6.9056 S.3       12 UNK        -0.2522 
     17 C17        28.7857   -2.5630   -5.9153 C.3       12 UNK        -0.0967 
     18 CA         27.8467   -1.6440   -6.7446 C.3       5 UNK         0.0660 
     19 N          26.4219   -1.8664   -6.4643 N.am      5 UNK        -0.4015 
     20 C          25.4490   -1.5223   -7.3201 C.2       4 UNK         0.4946 
     21 O          25.6566   -0.9656   -8.3971 O.2       4 UNK        -0.5353 
     22 CA         23.9985   -1.8319   -6.9206 C.3       4 UNK         0.0277 
     23 CB         23.6484   -3.2947   -7.2358 C.3       4 UNK        -0.1981 
     24 N          23.6576   -1.5305   -5.5286 N.am      4 UNK        -0.4209 
     25 C          23.7352   -0.3220   -4.9551 C.2       3 UNK         0.4942 
     26 O          24.2740    0.6509   -5.4831 O.2       3 UNK        -0.5208 
     27 CA         23.0879   -0.1603   -3.5703 C.3       3 UNK         0.0250 
     28 CB         22.0247   -1.2293   -3.2428 C.3       3 UNK        -0.1990 
     29 N          24.1326   -0.1939   -2.5552 N.am      3 UNK        -0.4232 
     30 C          24.7159    0.8829   -2.0118 C.2       2 UNK         0.4993 
     31 O          24.3460    2.0385   -2.2233 O.2       2 UNK        -0.5286 
     32 CA         25.9041    0.6503   -1.0553 C.3       2 UNK         0.0209 
     33 CB         25.5899    1.1982    0.3481 C.3       2 UNK        -0.1931 
     34 N          26.3139   -0.7517   -0.9294 N.am      2 UNK        -0.4546 
     35 C          26.9315   -1.4705   -1.8758 C.2       1 UNK         0.5154 
     36 O          27.2640   -1.0223   -2.9775 O.2       1 UNK        -0.5181 
     37 C          28.2253   -0.1528   -6.6497 C.2       5 UNK         0.5014 
     38 O          29.0255    0.3141   -7.4628 O.2       5 UNK        -0.5248 
     39 N          27.6144    0.5876   -5.7139 N.am      6 UNK        -0.4434 
     40 CA         27.7393    2.0446   -5.6337 C.3       6 UNK         0.0363 
     41 CB         27.1484    2.5538   -4.3137 C.3       6 UNK        -0.1936 
     42 C          27.0878    2.7487   -6.8358 C.2       6 UNK         0.5081 
     43 O          27.7007    3.6510   -7.4051 O.2       6 UNK        -0.5248 
     44 N          25.8872    2.2993   -7.2322 N.am      7 UNK        -0.4718 
     45 CA         25.1566    2.7920   -8.4061 C.3       7 UNK         0.0273 
     46 CB         23.7488    2.1767   -8.4354 C.3       7 UNK        -0.1935 
     47 C          25.8931    2.5327   -9.7326 C.2       7 UNK         0.5018 
     48 O          25.8930    3.4025  -10.6042 O.2       7 UNK        -0.5186 
     49 N          26.5379    1.3632   -9.8465 N.am      8 UNK        -0.4240 
     50 CA         27.4054    0.9856  -10.9664 C.3       8 UNK         0.0235 
     51 CB         27.6108   -0.5387  -10.9463 C.3       8 UNK        -0.2000 
     52 C          28.7701    1.7028  -10.9713 C.2       8 UNK         0.4941 
     53 O          29.4847    1.5967  -11.9691 O.2       8 UNK        -0.5273 
     54 N          29.1154    2.3938   -9.8731 N.am      9 UNK        -0.4262 
     55 CA         30.3887    3.0713   -9.6063 C.3       9 UNK         0.0264 
     56 CB         30.5953    4.2656  -10.5628 C.3       9 UNK        -0.1955 
     57 C          31.5796    2.0934   -9.5802 C.2       9 UNK         0.5031 
     58 O          32.6242    2.3695  -10.1758 O.2       9 UNK        -0.5390 
     59 N          31.3929    0.9604   -8.8904 N.am      10 UNK        -0.4204 
     60 CA         32.4139   -0.0600   -8.6532 C.3       10 UNK         0.0237 
     61 CB         31.7056   -1.3885   -8.3207 C.3       10 UNK        -0.1985 
     62 C          33.3929    0.3552   -7.5352 C.2       10 UNK         0.4970 
     63 O          33.3249    1.4744   -7.0207 O.2       10 UNK        -0.4914 
     64 N          34.2778   -0.5812   -7.1710 N.am      11 UNK        -0.4285 
     65 CA         35.2740   -0.4787   -6.0875 C.3       11 UNK         0.1007 
     66 C          36.5176    0.3974   -6.4261 C.2       11 UNK         0.5703 
     67 N          36.7093    0.8284   -7.6674 N.am      11 UNK        -0.7361 
     68 O          37.3446    0.6646   -5.5571 O.2       11 UNK        -0.4986 
     69 C69        34.6776   -0.1335   -4.6855 C.3       12 UNK        -0.0947 
     70 S70        33.1156   -0.9804   -4.2678 S.3       12 UNK        -0.2240 
     71 C71        33.6765   -2.6843   -3.9940 C.3       12 UNK         0.0194 
     72 H72        26.5633   -5.9087   -4.1875 H         1 UNK         0.0906 
     73 H73        26.3449   -4.6540   -5.4159 H         1 UNK         0.0906 
     74 H74        24.9433   -5.4317   -4.6736 H         1 UNK         0.0906 
     75 H75        27.8453   -4.4110   -2.8690 H         1 UNK         0.3140 
     76 H76        26.4274   -3.2509   -0.8010 H         1 UNK         0.1085 
     77 H77        28.6287   -2.4800    0.0637 H         1 UNK         0.0836 
     78 H78        29.3650   -2.7536   -1.4915 H         1 UNK         0.0836 
     79 H79        31.2370   -4.4399   -0.0008 H         1 UNK         0.0731 
     80 H80        30.9382   -6.0892   -0.4930 H         1 UNK         0.0731 
     81 H81        32.7404   -3.5381   -1.5815 H         1 UNK         0.1312 
     82 H82        31.9552   -3.7775   -5.7844 H         1 UNK         0.1406 
     83 H83        29.4103   -5.8316   -3.0067 H         1 UNK         0.1631 
     84 H84        28.7155   -5.6672   -5.2722 H         1 UNK         0.0717 
     85 H85        30.1381   -6.1424   -6.1614 H         1 UNK         0.0717 
     86 H86        28.3119   -2.8884   -4.9898 H         1 UNK         0.0934 
     87 H87        29.6943   -2.0428   -5.6043 H         1 UNK         0.0934 
     88 H88        27.9953   -1.8839   -7.8001 H         1 UNK         0.0739 
     89 H89        26.1732   -2.2618   -5.5702 H         1 UNK         0.3093 
     90 H90        23.3603   -1.2001   -7.5419 H         1 UNK         0.0818 
     91 H91        23.8791   -3.5362   -8.2745 H         1 UNK         0.0819 
     92 H92        24.2048   -3.9906   -6.6089 H         1 UNK         0.0819 
     93 H93        22.5855   -3.4887   -7.0903 H         1 UNK         0.0819 
     94 H94        23.2560   -2.2827   -4.9865 H         1 UNK         0.3041 
     95 H95        22.5874    0.8104   -3.5673 H         1 UNK         0.0784 
     96 H96        21.2554   -1.2705   -4.0155 H         1 UNK         0.0793 
     97 H97        22.4512   -2.2276   -3.1408 H         1 UNK         0.0793 
     98 H98        21.5199   -0.9962   -2.3051 H         1 UNK         0.0793 
     99 H99        24.5279   -1.1045   -2.3602 H         1 UNK         0.3024 
    100 H100       26.7486    1.2126   -1.4578 H         1 UNK         0.1171 
    101 H101       25.3338    2.2580    0.3079 H         1 UNK         0.0786 
    102 H102       24.7476    0.6774    0.8053 H         1 UNK         0.0786 
    103 H103       26.4477    1.1023    1.0141 H         1 UNK         0.0786 
    104 H104       26.0746   -1.2030   -0.0575 H         1 UNK         0.2977 
    105 H105       26.9925    0.1379   -5.0545 H         1 UNK         0.3127 
    106 H106       28.8037    2.2901   -5.6413 H         1 UNK         0.0770 
    107 H107       26.0810    2.3447   -4.2473 H         1 UNK         0.0814 
    108 H108       27.2744    3.6331   -4.2207 H         1 UNK         0.0814 
    109 H109       27.6425    2.0938   -3.4588 H         1 UNK         0.0814 
    110 H110       25.4250    1.5839   -6.6743 H         1 UNK         0.2983 
    111 H111       25.0528    3.8738   -8.2969 H         1 UNK         0.0947 
    112 H112       23.7853    1.0910   -8.5264 H         1 UNK         0.0806 
    113 H113       23.1737    2.5567   -9.2808 H         1 UNK         0.0806 
    114 H114       23.1923    2.4171   -7.5293 H         1 UNK         0.0806 
    115 H115       26.4043    0.6630   -9.1207 H         1 UNK         0.3000 
    116 H116       26.8970    1.2504  -11.8958 H         1 UNK         0.0850 
    117 H117       28.2125   -0.8662  -11.7951 H         1 UNK         0.0810 
    118 H118       26.6599   -1.0689  -11.0008 H         1 UNK         0.0810 
    119 H119       28.1237   -0.8610  -10.0394 H         1 UNK         0.0810 
    120 H120       28.4536    2.4167   -9.1065 H         1 UNK         0.3040 
    121 H121       30.3087    3.4736   -8.5952 H         1 UNK         0.0766 
    122 H122       29.7435    4.9451  -10.5366 H         1 UNK         0.0812 
    123 H123       30.7357    3.9417  -11.5943 H         1 UNK         0.0812 
    124 H124       31.4779    4.8410  -10.2811 H         1 UNK         0.0812 
    125 H125       30.5049    0.8207   -8.4083 H         1 UNK         0.3205 
    126 H126       32.9889   -0.1939   -9.5718 H         1 UNK         0.0754 
    127 H127       32.3983   -2.2301   -8.3323 H         1 UNK         0.0769 
    128 H128       30.9201   -1.6149   -9.0424 H         1 UNK         0.0769 
    129 H129       31.2474   -1.3582   -7.3318 H         1 UNK         0.0769 
    130 H130       34.2729   -1.4620   -7.6636 H         1 UNK         0.2981 
    131 H131       35.6826   -1.4861   -6.0079 H         1 UNK         0.0541 
    132 H132       37.5238    1.3840   -7.8764 H         1 UNK         0.3459 
    133 H133       36.0431    0.6152   -8.3918 H         1 UNK         0.3459 
    134 H134       34.4847    0.9383   -4.6163 H         1 UNK         0.0612 
    135 H135       35.4036   -0.3552   -3.9014 H         1 UNK         0.0612 
    136 H136       34.3855   -2.7075   -3.1651 H         1 UNK         0.0624 
    137 H137       34.2082   -3.0450   -4.8753 H         1 UNK         0.0624 
@<TRIPOS>BOND
     1    1    2 1    
     2    1   72 1    
     3    1   73 1    
     4    1   74 1    
     5    2    3 2    
     6    2    4 am   BACKBONE|DICT|INTERRES
     7    4    5 1    
     8    4   75 1    
     9    5    6 1    
    10    5   35 1    
    11    5   76 1    
    12    6    7 1    
    13    6   77 1    
    14    6   78 1    
    15    7    8 1    
    16    8    9 1    
    17    8   79 1    
    18    8   80 1    
    19    9   10 ar   
    20    9   14 ar   
    21   10   11 ar   
    22   10   81 1    
    23   11   12 ar   
    24   11   71 1    
    25   12   13 ar   
    26   12   82 1    
    27   13   14 ar   
    28   13   15 1    
    29   14   83 1    
    30   15   16 1    
    31   15   84 1    
    32   15   85 1    
    33   16   17 1    
    34   17   18 1    
    35   17   86 1    
    36   17   87 1    
    37   18   19 1    
    38   18   37 1    
    39   18   88 1    
    40   19   20 am   BACKBONE|DICT|INTERRES
    41   19   89 1    
    42   20   21 2    
    43   20   22 1    
    44   22   23 1    
    45   22   24 1    
    46   22   90 1    
    47   23   91 1    
    48   23   92 1    
    49   23   93 1    
    50   24   25 am   BACKBONE|DICT|INTERRES
    51   24   94 1    
    52   25   26 2    
    53   25   27 1    
    54   27   28 1    
    55   27   29 1    
    56   27   95 1    
    57   28   96 1    
    58   28   97 1    
    59   28   98 1    
    60   29   30 am   BACKBONE|DICT|INTERRES
    61   29   99 1    
    62   30   31 2    
    63   30   32 1    
    64   32   33 1    
    65   32   34 1    
    66   32  100 1    
    67   33  101 1    
    68   33  102 1    
    69   33  103 1    
    70   34   35 am   BACKBONE|DICT|INTERRES
    71   34  104 1    
    72   35   36 2    
    73   37   38 2    
    74   37   39 am   BACKBONE|DICT|INTERRES
    75   39   40 1    
    76   39  105 1    
    77   40   41 1    
    78   40   42 1    
    79   40  106 1    
    80   41  107 1    
    81   41  108 1    
    82   41  109 1    
    83   42   43 2    
    84   42   44 am   BACKBONE|DICT|INTERRES
    85   44   45 1    
    86   44  110 1    
    87   45   46 1    
    88   45   47 1    
    89   45  111 1    
    90   46  112 1    
    91   46  113 1    
    92   46  114 1    
    93   47   48 2    
    94   47   49 am   BACKBONE|DICT|INTERRES
    95   49   50 1    
    96   49  115 1    
    97   50   51 1    
    98   50   52 1    
    99   50  116 1    
   100   51  117 1    
   101   51  118 1    
   102   51  119 1    
   103   52   53 2    
   104   52   54 am   BACKBONE|DICT|INTERRES
   105   54   55 1    
   106   54  120 1    
   107   55   56 1    
   108   55   57 1    
   109   55  121 1    
   110   56  122 1    
   111   56  123 1    
   112   56  124 1    
   113   57   58 2    
   114   57   59 am   BACKBONE|DICT|INTERRES
   115   59   60 1    
   116   59  125 1    
   117   60   61 1    
   118   60   62 1    
   119   60  126 1    
   120   61  127 1    
   121   61  128 1    
   122   61  129 1    
   123   62   63 2    
   124   62   64 am   BACKBONE|DICT|INTERRES
   125   64   65 1    
   126   64  130 1    
   127   65   66 1    
   128   65   69 1    
   129   65  131 1    
   130   66   67 am   BACKBONE|DICT|INTERRES
   131   66   68 2    
   132   67  132 1    
   133   67  133 1    
   134   69   70 1    
   135   69  134 1    
   136   69  135 1    
   137   70   71 1    
   138   71  136 1    
   139   71  137 1    
@<TRIPOS>SUBSTRUCTURE
     1 UNK         1 GROUP             0       ****    0 ROOT    
