@<TRIPOS>MOLECULE
3R137
137   139    1
SMALL
USER_CHARGES


@<TRIPOS>ATOM
      1 CA         32.2809    0.4927   -0.9310 C.3       0 UNK        -0.2020 
      2 C          30.9744   -0.1543   -1.3640 C.2       0 UNK         0.4855 
      3 O          30.2719    0.3946   -2.2094 O.2       0 UNK        -0.5197 
      4 N          30.6501   -1.3192   -0.7887 N.am      1 UNK        -0.4892 
      5 CA         29.4364   -2.0976   -1.0630 C.3       1 UNK         0.0835 
      6 C6         29.5013   -3.4631   -0.3310 C.3       12 UNK        -0.0855 
      7 S7         28.4483   -4.7450   -1.0908 S.3       12 UNK        -0.2931 
      8 C8         29.6700   -5.7194   -2.0269 C.3       12 UNK         0.0378 
      9 C9         30.0069   -5.0533   -3.3515 C.ar      12 UNK        -0.0802 
     10 C10        31.0556   -4.1309   -3.4403 C.ar      12 UNK        -0.0944 
     11 C11        31.3468   -3.5063   -4.6565 C.ar      12 UNK        -0.0787 
     12 C12        30.5863   -3.8232   -5.7847 C.ar      12 UNK        -0.0862 
     13 C13        29.5354   -4.7402   -5.7144 C.ar      12 UNK        -0.0733 
     14 C14        29.2589   -5.3617   -4.4921 C.ar      12 UNK        -0.0832 
     15 C15        28.7359   -5.0536   -6.9777 C.3       12 UNK         0.0240 
     16 S16        26.9428   -5.2798   -6.7157 S.3       12 UNK        -0.2522 
     17 C17        26.4506   -3.7004   -5.9509 C.3       12 UNK        -0.0967 
     18 CA         26.3106   -2.5429   -6.9806 C.3       5 UNK         0.0660 
     19 N          24.9928   -1.9016   -6.9121 N.am      5 UNK        -0.4015 
     20 C          24.5458   -0.9575   -7.7544 C.2       4 UNK         0.4946 
     21 O          25.1862   -0.5407   -8.7167 O.2       4 UNK        -0.5353 
     22 CA         23.1645   -0.3449   -7.4715 C.3       4 UNK         0.0277 
     23 CB         22.0888   -1.0293   -8.3297 C.3       4 UNK        -0.1981 
     24 N          22.7774   -0.4075   -6.0614 N.am      4 UNK        -0.4209 
     25 C          23.3934    0.2458   -5.0665 C.2       3 UNK         0.4942 
     26 O          24.3354    1.0213   -5.2434 O.2       3 UNK        -0.5208 
     27 CA         22.8666   -0.0102   -3.6395 C.3       3 UNK         0.0250 
     28 CB         21.9752   -1.2691   -3.5188 C.3       3 UNK        -0.1990 
     29 N          23.9228   -0.0653   -2.6223 N.am      3 UNK        -0.4232 
     30 C          25.0127   -0.8469   -2.6107 C.2       2 UNK         0.4993 
     31 O          25.3801   -1.5647   -3.5482 O.2       2 UNK        -0.5286 
     32 CA         25.7958   -0.8490   -1.2917 C.3       2 UNK         0.0209 
     33 CB         25.0089   -1.5910   -0.1913 C.3       2 UNK        -0.1931 
     34 N          27.0928   -1.4902   -1.4837 N.am      2 UNK        -0.4546 
     35 C          28.1554   -1.3201   -0.6891 C.2       1 UNK         0.5154 
     36 O          28.1455   -0.6106    0.3217 O.2       1 UNK        -0.5181 
     37 C          27.4428   -1.5093   -6.8197 C.2       5 UNK         0.5014 
     38 O          28.3643   -1.4761   -7.6389 O.2       5 UNK        -0.5248 
     39 N          27.3074   -0.6543   -5.7937 N.am      6 UNK        -0.4434 
     40 CA         28.2157    0.4549   -5.4984 C.3       6 UNK         0.0363 
     41 CB         27.7841    1.1442   -4.1965 C.3       6 UNK        -0.1936 
     42 C          28.3120    1.4830   -6.6346 C.2       6 UNK         0.5081 
     43 O          29.4020    1.9927   -6.8981 O.2       6 UNK        -0.5248 
     44 N          27.1743    1.7591   -7.2859 N.am      7 UNK        -0.4718 
     45 CA         27.0755    2.6583   -8.4336 C.3       7 UNK         0.0273 
     46 CB         25.6085    3.0659   -8.6462 C.3       7 UNK        -0.1935 
     47 C          27.6664    2.0392   -9.7097 C.2       7 UNK         0.5018 
     48 O          28.4452    2.7047  -10.3916 O.2       7 UNK        -0.5186 
     49 N          27.2986    0.7832  -10.0041 N.am      8 UNK        -0.4240 
     50 CA         27.7177    0.0402  -11.1962 C.3       8 UNK         0.0235 
     51 CB         26.9353   -1.2800  -11.2901 C.3       8 UNK        -0.2000 
     52 C          29.2282   -0.2265  -11.2488 C.2       8 UNK         0.4941 
     53 O          29.8363   -0.0379  -12.3032 O.2       8 UNK        -0.5273 
     54 N          29.8095   -0.6420  -10.1153 N.am      9 UNK        -0.4262 
     55 CA         31.2520   -0.8650   -9.9810 C.3       9 UNK         0.0264 
     56 CB         31.4950   -1.8457   -8.8285 C.3       9 UNK        -0.1955 
     57 C          32.0467    0.4312   -9.7459 C.2       9 UNK         0.5031 
     58 O          33.2708    0.4098   -9.8795 O.2       9 UNK        -0.5390 
     59 N          31.3503    1.5141   -9.3683 N.am      10 UNK        -0.4204 
     60 CA         31.8719    2.8296   -8.9787 C.3       10 UNK         0.0237 
     61 CB         32.5919    3.5173  -10.1585 C.3       10 UNK        -0.1985 
     62 C          32.7203    2.8066   -7.6894 C.2       10 UNK         0.4970 
     63 O          33.4896    3.7409   -7.4563 O.2       10 UNK        -0.4914 
     64 N          32.5568    1.7622   -6.8658 N.am      11 UNK        -0.4285 
     65 CA         33.1662    1.6412   -5.5346 C.3       11 UNK         0.1007 
     66 C          32.4456    2.4779   -4.4374 C.2       11 UNK         0.5703 
     67 N          31.2225    2.9495   -4.6574 N.am      11 UNK        -0.7361 
     68 O          33.0254    2.7332   -3.3848 O.2       11 UNK        -0.4986 
     69 C69        33.3769    0.1578   -5.1221 C.3       12 UNK        -0.0947 
     70 S70        31.8396   -0.8188   -5.0585 S.3       12 UNK        -0.2240 
     71 C71        32.4804   -2.4940   -4.7638 C.3       12 UNK         0.0194 
     72 H72        32.7041    0.0124   -0.0491 H         1 UNK         0.0906 
     73 H73        33.0106    0.4313   -1.7376 H         1 UNK         0.0906 
     74 H74        32.1202    1.5455   -0.7000 H         1 UNK         0.0906 
     75 H75        31.2531   -1.6919   -0.0698 H         1 UNK         0.3140 
     76 H76        29.4202   -2.2684   -2.1418 H         1 UNK         0.1085 
     77 H77        30.5268   -3.8345   -0.3145 H         1 UNK         0.0836 
     78 H78        29.2222   -3.3585    0.7197 H         1 UNK         0.0836 
     79 H79        30.5713   -5.8768   -1.4327 H         1 UNK         0.0731 
     80 H80        29.2564   -6.7127   -2.2088 H         1 UNK         0.0731 
     81 H81        31.6371   -3.8912   -2.5610 H         1 UNK         0.1312 
     82 H82        30.8118   -3.3449   -6.7233 H         1 UNK         0.1406 
     83 H83        28.4518   -6.0783   -4.4234 H         1 UNK         0.1631 
     84 H84        29.1381   -5.9644   -7.4227 H         1 UNK         0.0717 
     85 H85        28.8726   -4.2648   -7.7194 H         1 UNK         0.0717 
     86 H86        27.1343   -3.4618   -5.1331 H         1 UNK         0.0934 
     87 H87        25.4981   -3.8897   -5.4532 H         1 UNK         0.0934 
     88 H88        26.3952   -2.9457   -7.9924 H         1 UNK         0.0739 
     89 H89        24.4118   -2.1533   -6.1262 H         1 UNK         0.3093 
     90 H90        23.2113    0.7081   -7.7575 H         1 UNK         0.0818 
     91 H91        21.1175   -0.5499   -8.2069 H         1 UNK         0.0819 
     92 H92        22.3430   -0.9731   -9.3894 H         1 UNK         0.0819 
     93 H93        21.9788   -2.0847   -8.0772 H         1 UNK         0.0819 
     94 H94        22.0026   -1.0122   -5.8286 H         1 UNK         0.3041 
     95 H95        22.2515    0.8562   -3.3916 H         1 UNK         0.0784 
     96 H96        21.0735   -1.1873   -4.1268 H         1 UNK         0.0793 
     97 H97        22.5060   -2.1739   -3.8190 H         1 UNK         0.0793 
     98 H98        21.6421   -1.4138   -2.4908 H         1 UNK         0.0793 
     99 H99        23.7574    0.5172   -1.8135 H         1 UNK         0.3024 
    100 H100       25.9569    0.1899   -0.9938 H         1 UNK         0.1171 
    101 H101       25.5364   -1.5693    0.7624 H         1 UNK         0.0786 
    102 H102       24.8431   -2.6363   -0.4556 H         1 UNK         0.0786 
    103 H103       24.0313   -1.1377   -0.0233 H         1 UNK         0.0786 
    104 H104       27.1524   -2.0737   -2.3093 H         1 UNK         0.2977 
    105 H105       26.5141   -0.7709   -5.1714 H         1 UNK         0.3127 
    106 H106       29.2074    0.0326   -5.3483 H         1 UNK         0.0770 
    107 H107       26.7822    1.5677   -4.2698 H         1 UNK         0.0814 
    108 H108       28.4668    1.9558   -3.9422 H         1 UNK         0.0814 
    109 H109       27.7969    0.4475   -3.3606 H         1 UNK         0.0814 
    110 H110       26.3282    1.2910   -6.9903 H         1 UNK         0.2983 
    111 H111       27.6475    3.5613   -8.2076 H         1 UNK         0.0947 
    112 H112       25.5172    3.7709   -9.4735 H         1 UNK         0.0806 
    113 H113       25.1997    3.5517   -7.7599 H         1 UNK         0.0806 
    114 H114       24.9765    2.2085   -8.8788 H         1 UNK         0.0806 
    115 H115       26.6210    0.3167   -9.4015 H         1 UNK         0.3000 
    116 H116       27.4617    0.6481  -12.0666 H         1 UNK         0.0850 
    117 H117       27.2333   -1.8520  -12.1699 H         1 UNK         0.0810 
    118 H118       25.8632   -1.0991  -11.3697 H         1 UNK         0.0810 
    119 H119       27.1026   -1.9105  -10.4157 H         1 UNK         0.0810 
    120 H120       29.2351   -0.8157   -9.2926 H         1 UNK         0.3040 
    121 H121       31.6301   -1.3206  -10.8988 H         1 UNK         0.0766 
    122 H122       32.5578   -2.0585   -8.7046 H         1 UNK         0.0812 
    123 H123       31.1299   -1.4364   -7.8868 H         1 UNK         0.0812 
    124 H124       30.9898   -2.7948   -9.0076 H         1 UNK         0.0812 
    125 H125       30.3468    1.4167   -9.2872 H         1 UNK         0.3205 
    126 H126       30.9935    3.4313   -8.7403 H         1 UNK         0.0754 
    127 H127       32.8307    4.5546   -9.9209 H         1 UNK         0.0769 
    128 H128       31.9660    3.5276  -11.0510 H         1 UNK         0.0769 
    129 H129       33.5284    3.0188  -10.4096 H         1 UNK         0.0769 
    130 H130       31.8628    1.0673   -7.0975 H         1 UNK         0.2981 
    131 H131       34.1666    2.0728   -5.6040 H         1 UNK         0.0541 
    132 H132       30.7237    2.7111   -5.5066 H         1 UNK         0.3459 
    133 H133       30.7720    3.4929   -3.9401 H         1 UNK         0.3459 
    134 H134       33.8712    0.0960   -4.1511 H         1 UNK         0.0612 
    135 H135       34.0523   -0.3213   -5.8325 H         1 UNK         0.0612 
    136 H136       33.1440   -2.7765   -5.5823 H         1 UNK         0.0624 
    137 H137       33.0837   -2.4903   -3.8547 H         1 UNK         0.0624 
@<TRIPOS>BOND
     1    1    2 1    
     2    1   72 1    
     3    1   73 1    
     4    1   74 1    
     5    2    3 2    
     6    2    4 am   BACKBONE|DICT|INTERRES
     7    4    5 1    
     8    4   75 1    
     9    5    6 1    
    10    5   35 1    
    11    5   76 1    
    12    6    7 1    
    13    6   77 1    
    14    6   78 1    
    15    7    8 1    
    16    8    9 1    
    17    8   79 1    
    18    8   80 1    
    19    9   10 ar   
    20    9   14 ar   
    21   10   11 ar   
    22   10   81 1    
    23   11   12 ar   
    24   11   71 1    
    25   12   13 ar   
    26   12   82 1    
    27   13   14 ar   
    28   13   15 1    
    29   14   83 1    
    30   15   16 1    
    31   15   84 1    
    32   15   85 1    
    33   16   17 1    
    34   17   18 1    
    35   17   86 1    
    36   17   87 1    
    37   18   19 1    
    38   18   37 1    
    39   18   88 1    
    40   19   20 am   BACKBONE|DICT|INTERRES
    41   19   89 1    
    42   20   21 2    
    43   20   22 1    
    44   22   23 1    
    45   22   24 1    
    46   22   90 1    
    47   23   91 1    
    48   23   92 1    
    49   23   93 1    
    50   24   25 am   BACKBONE|DICT|INTERRES
    51   24   94 1    
    52   25   26 2    
    53   25   27 1    
    54   27   28 1    
    55   27   29 1    
    56   27   95 1    
    57   28   96 1    
    58   28   97 1    
    59   28   98 1    
    60   29   30 am   BACKBONE|DICT|INTERRES
    61   29   99 1    
    62   30   31 2    
    63   30   32 1    
    64   32   33 1    
    65   32   34 1    
    66   32  100 1    
    67   33  101 1    
    68   33  102 1    
    69   33  103 1    
    70   34   35 am   BACKBONE|DICT|INTERRES
    71   34  104 1    
    72   35   36 2    
    73   37   38 2    
    74   37   39 am   BACKBONE|DICT|INTERRES
    75   39   40 1    
    76   39  105 1    
    77   40   41 1    
    78   40   42 1    
    79   40  106 1    
    80   41  107 1    
    81   41  108 1    
    82   41  109 1    
    83   42   43 2    
    84   42   44 am   BACKBONE|DICT|INTERRES
    85   44   45 1    
    86   44  110 1    
    87   45   46 1    
    88   45   47 1    
    89   45  111 1    
    90   46  112 1    
    91   46  113 1    
    92   46  114 1    
    93   47   48 2    
    94   47   49 am   BACKBONE|DICT|INTERRES
    95   49   50 1    
    96   49  115 1    
    97   50   51 1    
    98   50   52 1    
    99   50  116 1    
   100   51  117 1    
   101   51  118 1    
   102   51  119 1    
   103   52   53 2    
   104   52   54 am   BACKBONE|DICT|INTERRES
   105   54   55 1    
   106   54  120 1    
   107   55   56 1    
   108   55   57 1    
   109   55  121 1    
   110   56  122 1    
   111   56  123 1    
   112   56  124 1    
   113   57   58 2    
   114   57   59 am   BACKBONE|DICT|INTERRES
   115   59   60 1    
   116   59  125 1    
   117   60   61 1    
   118   60   62 1    
   119   60  126 1    
   120   61  127 1    
   121   61  128 1    
   122   61  129 1    
   123   62   63 2    
   124   62   64 am   BACKBONE|DICT|INTERRES
   125   64   65 1    
   126   64  130 1    
   127   65   66 1    
   128   65   69 1    
   129   65  131 1    
   130   66   67 am   BACKBONE|DICT|INTERRES
   131   66   68 2    
   132   67  132 1    
   133   67  133 1    
   134   69   70 1    
   135   69  134 1    
   136   69  135 1    
   137   70   71 1    
   138   71  136 1    
   139   71  137 1    
@<TRIPOS>SUBSTRUCTURE
     1 UNK         1 GROUP             0       ****    0 ROOT    
