@<TRIPOS>MOLECULE
3R137
137   139    1
SMALL
USER_CHARGES


@<TRIPOS>ATOM
      1 CA         25.2255   -2.9516   -7.7437 C.3       0 UNK        -0.2020 
      2 C          25.0394   -3.8220   -6.5122 C.2       0 UNK         0.4855 
      3 O          23.9058   -4.0936   -6.1145 O.2       0 UNK        -0.5197 
      4 N          26.1454   -4.2627   -5.9015 N.am      1 UNK        -0.4892 
      5 CA         26.1773   -5.0611   -4.6730 C.3       1 UNK         0.0835 
      6 C6         27.6026   -5.5754   -4.3325 C.3       12 UNK        -0.0855 
      7 S7         28.9246   -4.3315   -4.5370 S.3       12 UNK        -0.2931 
      8 C8         29.4209   -4.0137   -2.8135 C.3       12 UNK         0.0378 
      9 C9         30.4210   -2.8677   -2.7231 C.ar      12 UNK        -0.0802 
     10 C10        31.5975   -2.8999   -3.4772 C.ar      12 UNK        -0.0944 
     11 C11        32.5060   -1.8404   -3.4297 C.ar      12 UNK        -0.0787 
     12 C12        32.2490   -0.7505   -2.5938 C.ar      12 UNK        -0.0862 
     13 C13        31.0941   -0.7196   -1.8053 C.ar      12 UNK        -0.0733 
     14 C14        30.1806   -1.7782   -1.8795 C.ar      12 UNK        -0.0832 
     15 C15        30.8623    0.4368   -0.8408 C.3       12 UNK         0.0240 
     16 S16        29.2755    1.2856   -1.1115 S.3       12 UNK        -0.2522 
     17 C17        29.5147    2.0488   -2.7531 C.3       12 UNK        -0.0967 
     18 CA         28.5906    1.4404   -3.8387 C.3       5 UNK         0.0660 
     19 N          27.1841    1.3989   -3.4146 N.am      5 UNK        -0.4015 
     20 C          26.1932    0.8177   -4.1006 C.2       4 UNK         0.4946 
     21 O          26.3555    0.1989   -5.1558 O.2       4 UNK        -0.5353 
     22 CA         24.7758    1.0713   -3.5820 C.3       4 UNK         0.0277 
     23 CB         24.2566    2.4045   -4.1677 C.3       4 UNK        -0.1981 
     24 N          23.9306   -0.0572   -3.9675 N.am      4 UNK        -0.4209 
     25 C          22.6279   -0.2096   -3.6963 C.2       3 UNK         0.4942 
     26 O          21.9409    0.6162   -3.0935 O.2       3 UNK        -0.5208 
     27 CA         21.9831   -1.5291   -4.1515 C.3       3 UNK         0.0250 
     28 CB         21.8721   -1.5881   -5.6846 C.3       3 UNK        -0.1990 
     29 N          22.6905   -2.7098   -3.6422 N.am      3 UNK        -0.4232 
     30 C          22.7940   -3.0220   -2.3380 C.2       2 UNK         0.4993 
     31 O          22.2759   -2.3586   -1.4387 O.2       2 UNK        -0.5286 
     32 CA         23.5767   -4.2896   -1.9415 C.3       2 UNK         0.0209 
     33 CB         22.6185   -5.3741   -1.4188 C.3       2 UNK        -0.1931 
     34 N          24.3928   -4.8608   -3.0137 N.am      2 UNK        -0.4546 
     35 C          25.5126   -4.3106   -3.4994 C.2       1 UNK         0.5154 
     36 O          25.9884   -3.2522   -3.0850 O.2       1 UNK        -0.5181 
     37 C          28.7490    2.2105   -5.1682 C.2       5 UNK         0.5014 
     38 O          29.5194    1.7966   -6.0341 O.2       5 UNK        -0.5248 
     39 N          27.9694    3.2918   -5.3219 N.am      6 UNK        -0.4434 
     40 CA         27.8756    4.1018   -6.5378 C.3       6 UNK         0.0363 
     41 CB         27.1840    5.4326   -6.2001 C.3       6 UNK        -0.1936 
     42 C          27.1451    3.3992   -7.6975 C.2       6 UNK         0.5081 
     43 O          27.3315    3.8057   -8.8436 O.2       6 UNK        -0.5248 
     44 N          26.3323    2.3738   -7.4000 N.am      7 UNK        -0.4718 
     45 CA         25.7020    1.5189   -8.4093 C.3       7 UNK         0.0273 
     46 CB         24.3856    0.9356   -7.8684 C.3       7 UNK        -0.1935 
     47 C          26.6604    0.4127   -8.8804 C.2       7 UNK         0.5018 
     48 O          26.6195    0.0495  -10.0560 O.2       7 UNK        -0.5186 
     49 N          27.5181   -0.0824   -7.9730 N.am      8 UNK        -0.4240 
     50 CA         28.6273   -0.9880   -8.2868 C.3       8 UNK         0.0235 
     51 CB         29.2093   -1.5716   -6.9888 C.3       8 UNK        -0.2000 
     52 C          29.7074   -0.2829   -9.1257 C.2       8 UNK         0.4941 
     53 O          30.0693   -0.7862  -10.1904 O.2       8 UNK        -0.5273 
     54 N          30.1542    0.8904   -8.6514 N.am      9 UNK        -0.4262 
     55 CA         31.0097    1.8963   -9.2976 C.3       9 UNK         0.0264 
     56 CB         30.3085    2.5022  -10.5288 C.3       9 UNK        -0.1955 
     57 C          32.4365    1.4517   -9.6657 C.2       9 UNK         0.5031 
     58 O          33.3899    2.1435   -9.3056 O.2       9 UNK        -0.5390 
     59 N          32.5643    0.3395  -10.3995 N.am      10 UNK        -0.4204 
     60 CA         33.7969   -0.1454  -11.0329 C.3       10 UNK         0.0237 
     61 CB         33.4752   -1.3929  -11.8714 C.3       10 UNK        -0.1985 
     62 C          34.9514   -0.4356  -10.0594 C.2       10 UNK         0.4970 
     63 O          36.1131   -0.2821  -10.4388 O.2       10 UNK        -0.4914 
     64 N          34.6108   -0.8371   -8.8314 N.am      11 UNK        -0.4285 
     65 CA         35.5470   -1.0523   -7.7219 C.3       11 UNK         0.1007 
     66 C          35.9861    0.2446   -6.9780 C.2       11 UNK         0.5703 
     67 N          35.4721    1.4231   -7.3132 N.am      11 UNK        -0.7361 
     68 O          36.8284    0.1814   -6.0856 O.2       11 UNK        -0.4986 
     69 C69        35.0222   -2.1506   -6.7629 C.3       12 UNK        -0.0947 
     70 S70        33.3855   -1.7774   -6.0443 S.3       12 UNK        -0.2240 
     71 C71        33.7699   -1.8945   -4.2715 C.3       12 UNK         0.0194 
     72 H72        26.2077   -3.0940   -8.1930 H         1 UNK         0.0906 
     73 H73        24.4731   -3.1892   -8.4953 H         1 UNK         0.0906 
     74 H74        25.1210   -1.9031   -7.4731 H         1 UNK         0.0906 
     75 H75        27.0551   -3.9754   -6.2345 H         1 UNK         0.3140 
     76 H76        25.5711   -5.9475   -4.8741 H         1 UNK         0.1085 
     77 H77        27.8462   -6.4013   -5.0027 H         1 UNK         0.0836 
     78 H78        27.6388   -6.0039   -3.3288 H         1 UNK         0.0836 
     79 H79        28.5314   -3.7943   -2.2213 H         1 UNK         0.0731 
     80 H80        29.8674   -4.9151   -2.3919 H         1 UNK         0.0731 
     81 H81        31.7963   -3.7435   -4.1245 H         1 UNK         0.1312 
     82 H82        32.9583    0.0644   -2.5437 H         1 UNK         0.1406 
     83 H83        29.2830   -1.7506   -1.2763 H         1 UNK         0.1631 
     84 H84        31.6695    1.1686   -0.9010 H         1 UNK         0.0717 
     85 H85        30.8793    0.0483    0.1782 H         1 UNK         0.0717 
     86 H86        29.3326    3.1199   -2.6432 H         1 UNK         0.0934 
     87 H87        30.5605    1.9524   -3.0524 H         1 UNK         0.0934 
     88 H88        28.9069    0.4098   -4.0173 H         1 UNK         0.0739 
     89 H89        26.9731    1.8687   -2.5457 H         1 UNK         0.3093 
     90 H90        24.7983    1.1271   -2.4919 H         1 UNK         0.0818 
     91 H91        23.3062    2.7007   -3.7254 H         1 UNK         0.0819 
     92 H92        24.9517    3.2223   -3.9753 H         1 UNK         0.0819 
     93 H93        24.1144    2.3439   -5.2465 H         1 UNK         0.0819 
     94 H94        24.4270   -0.7911   -4.4580 H         1 UNK         0.3041 
     95 H95        20.9696   -1.5574   -3.7453 H         1 UNK         0.0784 
     96 H96        21.2957   -0.7440   -6.0653 H         1 UNK         0.0793 
     97 H97        22.8488   -1.5563   -6.1673 H         1 UNK         0.0793 
     98 H98        21.3686   -2.4982   -6.0113 H         1 UNK         0.0793 
     99 H99        23.1333   -3.3104   -4.3303 H         1 UNK         0.3024 
    100 H100       24.2452   -4.0025   -1.1263 H         1 UNK         0.1171 
    101 H101       22.0201   -5.0006   -0.5865 H         1 UNK         0.0786 
    102 H102       23.1639   -6.2453   -1.0551 H         1 UNK         0.0786 
    103 H103       21.9263   -5.7081   -2.1928 H         1 UNK         0.0786 
    104 H104       24.0453   -5.7107   -3.4353 H         1 UNK         0.2977 
    105 H105       27.3774    3.5677   -4.5526 H         1 UNK         0.3127 
    106 H106       28.8903    4.3192   -6.8789 H         1 UNK         0.0770 
    107 H107       26.1641    5.2802   -5.8445 H         1 UNK         0.0814 
    108 H108       27.1287    6.0770   -7.0788 H         1 UNK         0.0814 
    109 H109       27.7307    5.9821   -5.4335 H         1 UNK         0.0814 
    110 H110       26.2535    2.0722   -6.4390 H         1 UNK         0.2983 
    111 H111       25.4539    2.1241   -9.2845 H         1 UNK         0.0947 
    112 H112       23.9207    0.2772   -8.6036 H         1 UNK         0.0806 
    113 H113       23.6678    1.7250   -7.6461 H         1 UNK         0.0806 
    114 H114       24.5328    0.3546   -6.9598 H         1 UNK         0.0806 
    115 H115       27.4311    0.2229   -7.0107 H         1 UNK         0.3000 
    116 H116       28.2293   -1.8129   -8.8811 H         1 UNK         0.0850 
    117 H117       29.6920   -0.8143   -6.3713 H         1 UNK         0.0810 
    118 H118       28.4314   -2.0375   -6.3845 H         1 UNK         0.0810 
    119 H119       29.9577   -2.3352   -7.2044 H         1 UNK         0.0810 
    120 H120       29.8327    1.1623   -7.7223 H         1 UNK         0.3040 
    121 H121       31.1153    2.6938   -8.5601 H         1 UNK         0.0766 
    122 H122       29.3406    2.9257  -10.2656 H         1 UNK         0.0812 
    123 H123       30.1430    1.7614  -11.3117 H         1 UNK         0.0812 
    124 H124       30.9050    3.3059  -10.9626 H         1 UNK         0.0812 
    125 H125       31.7065   -0.1825  -10.5807 H         1 UNK         0.3205 
    126 H126       34.1397    0.6404  -11.7090 H         1 UNK         0.0754 
    127 H127       32.7362   -1.1728  -12.6422 H         1 UNK         0.0769 
    128 H128       33.0842   -2.2028  -11.2541 H         1 UNK         0.0769 
    129 H129       34.3668   -1.7670  -12.3767 H         1 UNK         0.0769 
    130 H130       33.6320   -0.9194   -8.6000 H         1 UNK         0.2981 
    131 H131       36.4699   -1.4458   -8.1520 H         1 UNK         0.0541 
    132 H132       34.7810    1.5109   -8.0512 H         1 UNK         0.3459 
    133 H133       35.7794    2.2462   -6.8210 H         1 UNK         0.3459 
    134 H134       34.9326   -3.0923   -7.3064 H         1 UNK         0.0612 
    135 H135       35.7481   -2.3429   -5.9709 H         1 UNK         0.0612 
    136 H136       34.4580   -1.0920   -4.0008 H         1 UNK         0.0624 
    137 H137       34.2877   -2.8339   -4.0724 H         1 UNK         0.0624 
@<TRIPOS>BOND
     1    1    2 1    
     2    1   72 1    
     3    1   73 1    
     4    1   74 1    
     5    2    3 2    
     6    2    4 am   BACKBONE|DICT|INTERRES
     7    4    5 1    
     8    4   75 1    
     9    5    6 1    
    10    5   35 1    
    11    5   76 1    
    12    6    7 1    
    13    6   77 1    
    14    6   78 1    
    15    7    8 1    
    16    8    9 1    
    17    8   79 1    
    18    8   80 1    
    19    9   10 ar   
    20    9   14 ar   
    21   10   11 ar   
    22   10   81 1    
    23   11   12 ar   
    24   11   71 1    
    25   12   13 ar   
    26   12   82 1    
    27   13   14 ar   
    28   13   15 1    
    29   14   83 1    
    30   15   16 1    
    31   15   84 1    
    32   15   85 1    
    33   16   17 1    
    34   17   18 1    
    35   17   86 1    
    36   17   87 1    
    37   18   19 1    
    38   18   37 1    
    39   18   88 1    
    40   19   20 am   BACKBONE|DICT|INTERRES
    41   19   89 1    
    42   20   21 2    
    43   20   22 1    
    44   22   23 1    
    45   22   24 1    
    46   22   90 1    
    47   23   91 1    
    48   23   92 1    
    49   23   93 1    
    50   24   25 am   BACKBONE|DICT|INTERRES
    51   24   94 1    
    52   25   26 2    
    53   25   27 1    
    54   27   28 1    
    55   27   29 1    
    56   27   95 1    
    57   28   96 1    
    58   28   97 1    
    59   28   98 1    
    60   29   30 am   BACKBONE|DICT|INTERRES
    61   29   99 1    
    62   30   31 2    
    63   30   32 1    
    64   32   33 1    
    65   32   34 1    
    66   32  100 1    
    67   33  101 1    
    68   33  102 1    
    69   33  103 1    
    70   34   35 am   BACKBONE|DICT|INTERRES
    71   34  104 1    
    72   35   36 2    
    73   37   38 2    
    74   37   39 am   BACKBONE|DICT|INTERRES
    75   39   40 1    
    76   39  105 1    
    77   40   41 1    
    78   40   42 1    
    79   40  106 1    
    80   41  107 1    
    81   41  108 1    
    82   41  109 1    
    83   42   43 2    
    84   42   44 am   BACKBONE|DICT|INTERRES
    85   44   45 1    
    86   44  110 1    
    87   45   46 1    
    88   45   47 1    
    89   45  111 1    
    90   46  112 1    
    91   46  113 1    
    92   46  114 1    
    93   47   48 2    
    94   47   49 am   BACKBONE|DICT|INTERRES
    95   49   50 1    
    96   49  115 1    
    97   50   51 1    
    98   50   52 1    
    99   50  116 1    
   100   51  117 1    
   101   51  118 1    
   102   51  119 1    
   103   52   53 2    
   104   52   54 am   BACKBONE|DICT|INTERRES
   105   54   55 1    
   106   54  120 1    
   107   55   56 1    
   108   55   57 1    
   109   55  121 1    
   110   56  122 1    
   111   56  123 1    
   112   56  124 1    
   113   57   58 2    
   114   57   59 am   BACKBONE|DICT|INTERRES
   115   59   60 1    
   116   59  125 1    
   117   60   61 1    
   118   60   62 1    
   119   60  126 1    
   120   61  127 1    
   121   61  128 1    
   122   61  129 1    
   123   62   63 2    
   124   62   64 am   BACKBONE|DICT|INTERRES
   125   64   65 1    
   126   64  130 1    
   127   65   66 1    
   128   65   69 1    
   129   65  131 1    
   130   66   67 am   BACKBONE|DICT|INTERRES
   131   66   68 2    
   132   67  132 1    
   133   67  133 1    
   134   69   70 1    
   135   69  134 1    
   136   69  135 1    
   137   70   71 1    
   138   71  136 1    
   139   71  137 1    
@<TRIPOS>SUBSTRUCTURE
     1 UNK         1 GROUP             0       ****    0 ROOT    
