@<TRIPOS>MOLECULE
3R137
137   139    1
SMALL
USER_CHARGES


@<TRIPOS>ATOM
      1 CA         26.4112   -6.2217   -2.3731 C.3       0 UNK        -0.2020 
      2 C          26.7679   -5.5227   -1.0705 C.2       0 UNK         0.4855 
      3 O          26.9109   -6.1842   -0.0420 O.2       0 UNK        -0.5197 
      4 N          26.9067   -4.1936   -1.1038 N.am      1 UNK        -0.4892 
      5 CA         27.1602   -3.3557    0.0661 C.3       1 UNK         0.0835 
      6 C6         28.6485   -3.3535    0.5341 C.3       12 UNK        -0.0855 
      7 S7         29.8814   -2.7356   -0.6686 S.3       12 UNK        -0.2931 
      8 C8         30.4246   -4.2473   -1.5206 C.3       12 UNK         0.0378 
      9 C9         30.6196   -3.9684   -3.0030 C.ar      12 UNK        -0.0802 
     10 C10        31.6600   -3.1343   -3.4258 C.ar      12 UNK        -0.0944 
     11 C11        31.8281   -2.8405   -4.7806 C.ar      12 UNK        -0.0787 
     12 C12        30.9493   -3.3966   -5.7131 C.ar      12 UNK        -0.0862 
     13 C13        29.9072   -4.2378   -5.3121 C.ar      12 UNK        -0.0733 
     14 C14        29.7540   -4.5261   -3.9504 C.ar      12 UNK        -0.0832 
     15 C15        29.0020   -4.8465   -6.3837 C.3       12 UNK         0.0240 
     16 S16        27.2640   -5.1249   -5.8938 S.3       12 UNK        -0.2522 
     17 C17        26.6834   -3.4669   -5.4057 C.3       12 UNK        -0.0967 
     18 CA         26.4710   -2.4990   -6.6050 C.3       5 UNK         0.0660 
     19 N          25.2175   -1.7465   -6.4925 N.am      5 UNK        -0.4015 
     20 C          24.7178   -0.9298   -7.4329 C.2       4 UNK         0.4946 
     21 O          25.2420   -0.7390   -8.5285 O.2       4 UNK        -0.5353 
     22 CA         23.4258   -0.1689   -7.0931 C.3       4 UNK         0.0277 
     23 CB         22.1980   -0.9563   -7.5778 C.3       4 UNK        -0.1981 
     24 N          23.2766    0.1392   -5.6699 N.am      4 UNK        -0.4209 
     25 C          24.1124    0.8952   -4.9438 C.2       3 UNK         0.4942 
     26 O          25.1194    1.4386   -5.4053 O.2       3 UNK        -0.5208 
     27 CA         23.7628    1.0705   -3.4510 C.3       3 UNK         0.0250 
     28 CB         22.7072    0.0659   -2.9318 C.3       3 UNK        -0.1990 
     29 N          24.9339    1.0401   -2.5687 N.am      3 UNK        -0.4232 
     30 C          25.8809    0.0931   -2.4944 C.2       2 UNK         0.4993 
     31 O          25.9805   -0.8563   -3.2803 O.2       2 UNK        -0.5286 
     32 CA         26.9074    0.2355   -1.3505 C.3       2 UNK         0.0209 
     33 CB         26.4699    1.1829   -0.2083 C.3       2 UNK        -0.1931 
     34 N          27.2984   -1.0744   -0.8213 N.am      2 UNK        -0.4546 
     35 C          26.5250   -1.9815   -0.2108 C.2       1 UNK         0.5154 
     36 O          25.3434   -1.7958    0.0865 O.2       1 UNK        -0.5181 
     37 C          27.6650   -1.5419   -6.7691 C.2       5 UNK         0.5014 
     38 O          28.3978   -1.6295   -7.7577 O.2       5 UNK        -0.5248 
     39 N          27.8041   -0.6164   -5.8089 N.am      6 UNK        -0.4434 
     40 CA         28.8685    0.3833   -5.8055 C.3       6 UNK         0.0363 
     41 CB         28.9588    1.0621   -4.4337 C.3       6 UNK        -0.1936 
     42 C          28.7288    1.4199   -6.9261 C.2       6 UNK         0.5081 
     43 O          29.7491    1.8646   -7.4511 O.2       6 UNK        -0.5248 
     44 N          27.4865    1.7650   -7.2942 N.am      7 UNK        -0.4718 
     45 CA         27.1822    2.6476   -8.4220 C.3       7 UNK         0.0273 
     46 CB         25.6934    3.0249   -8.4061 C.3       7 UNK        -0.1935 
     47 C          27.5767    2.0348   -9.7764 C.2       7 UNK         0.5018 
     48 O          28.1812    2.7310  -10.5920 O.2       7 UNK        -0.5186 
     49 N          27.2542    0.7487   -9.9855 N.am      8 UNK        -0.4240 
     50 CA         27.6002   -0.0033  -11.1952 C.3       8 UNK         0.0235 
     51 CB         26.8381   -1.3379  -11.2218 C.3       8 UNK        -0.2000 
     52 C          29.1106   -0.2435  -11.3346 C.2       8 UNK         0.4941 
     53 O          29.6463   -0.0850  -12.4323 O.2       8 UNK        -0.5273 
     54 N          29.7712   -0.6078  -10.2264 N.am      9 UNK        -0.4262 
     55 CA         31.2216   -0.8146  -10.1728 C.3       9 UNK         0.0264 
     56 CB         31.5633   -1.6272   -8.9182 C.3       9 UNK        -0.1955 
     57 C          32.0352    0.4913  -10.1980 C.2       9 UNK         0.5031 
     58 O          33.2148    0.4504  -10.5500 O.2       9 UNK        -0.5390 
     59 N          31.4046    1.6066   -9.8020 N.am      10 UNK        -0.4204 
     60 CA         31.9726    2.9468   -9.6206 C.3       10 UNK         0.0237 
     61 CB         32.4785    3.5289  -10.9581 C.3       10 UNK        -0.1985 
     62 C          33.0226    3.0100   -8.4921 C.2       10 UNK         0.4970 
     63 O          33.9233    3.8496   -8.5464 O.2       10 UNK        -0.4914 
     64 N          32.8842    2.1355   -7.4856 N.am      11 UNK        -0.4285 
     65 CA         33.7374    2.0961   -6.2876 C.3       11 UNK         0.1007 
     66 C          33.2857    3.0679   -5.1581 C.2       11 UNK         0.5703 
     67 N          32.1149    3.6907   -5.2462 N.am      11 UNK        -0.7361 
     68 O          34.0211    3.2757   -4.1959 O.2       11 UNK        -0.4986 
     69 C69        33.9621    0.6450   -5.7809 C.3       12 UNK        -0.0947 
     70 S70        32.4472   -0.1858   -5.2003 S.3       12 UNK        -0.2240 
     71 C71        32.9585   -1.9287   -5.2365 C.3       12 UNK         0.0194 
     72 H72        26.1126   -5.5128   -3.1437 H         1 UNK         0.0906 
     73 H73        27.2617   -6.7945   -2.7414 H         1 UNK         0.0906 
     74 H74        25.5815   -6.9101   -2.2147 H         1 UNK         0.0906 
     75 H75        26.7496   -3.6841   -1.9632 H         1 UNK         0.3140 
     76 H76        26.5790   -3.7672    0.8954 H         1 UNK         0.1085 
     77 H77        28.7397   -2.7474    1.4372 H         1 UNK         0.0836 
     78 H78        28.9358   -4.3603    0.8412 H         1 UNK         0.0836 
     79 H79        31.3612   -4.5936   -1.0814 H         1 UNK         0.0731 
     80 H80        29.6996   -5.0481   -1.3729 H         1 UNK         0.0731 
     81 H81        32.3282   -2.6986   -2.6952 H         1 UNK         0.1312 
     82 H82        31.0812   -3.1793   -6.7606 H         1 UNK         0.1406 
     83 H83        28.9590   -5.1819   -3.6267 H         1 UNK         0.1631 
     84 H84        29.4277   -5.8061   -6.6793 H         1 UNK         0.0717 
     85 H85        29.0073   -4.2272   -7.2815 H         1 UNK         0.0717 
     86 H86        27.3455   -3.0573   -4.6397 H         1 UNK         0.0934 
     87 H87        25.7372   -3.6310   -4.8878 H         1 UNK         0.0934 
     88 H88        26.3929   -3.0818   -7.5255 H         1 UNK         0.0739 
     89 H89        24.7392   -1.7981   -5.6050 H         1 UNK         0.3093 
     90 H90        23.4515    0.7800   -7.6306 H         1 UNK         0.0818 
     91 H91        21.2785   -0.3889   -7.4325 H         1 UNK         0.0819 
     92 H92        22.2735   -1.1773   -8.6436 H         1 UNK         0.0819 
     93 H93        22.0936   -1.9078   -7.0549 H         1 UNK         0.0819 
     94 H94        22.4745   -0.2596   -5.2036 H         1 UNK         0.3041 
     95 H95        23.3402    2.0723   -3.3614 H         1 UNK         0.0784 
     96 H96        21.7526    0.1775   -3.4474 H         1 UNK         0.0793 
     97 H97        23.0378   -0.9675   -3.0476 H         1 UNK         0.0793 
     98 H98        22.5068    0.2247   -1.8719 H         1 UNK         0.0793 
     99 H99        24.9879    1.7989   -1.9044 H         1 UNK         0.3024 
    100 H100       27.8054    0.6616   -1.7963 H         1 UNK         0.1171 
    101 H101       27.2052    1.1894    0.5966 H         1 UNK         0.0786 
    102 H102       25.5123    0.8906    0.2246 H         1 UNK         0.0786 
    103 H103       26.3786    2.2125   -0.5560 H         1 UNK         0.0786 
    104 H104       28.2471   -1.3666   -1.0299 H         1 UNK         0.2977 
    105 H105       27.1400   -0.5966   -5.0412 H         1 UNK         0.3127 
    106 H106       29.8003   -0.1512   -5.9847 H         1 UNK         0.0770 
    107 H107       28.0304    1.5724   -4.1749 H         1 UNK         0.0814 
    108 H108       29.7578    1.8049   -4.4199 H         1 UNK         0.0814 
    109 H109       29.1872    0.3330   -3.6567 H         1 UNK         0.0814 
    110 H110       26.7003    1.4008   -6.7652 H         1 UNK         0.2983 
    111 H111       27.7644    3.5626   -8.2908 H         1 UNK         0.0947 
    112 H112       25.4677    3.7486   -9.1904 H         1 UNK         0.0806 
    113 H113       25.4060    3.4746   -7.4555 H         1 UNK         0.0806 
    114 H114       25.0575    2.1566   -8.5735 H         1 UNK         0.0806 
    115 H115       26.7122    0.2504   -9.2830 H         1 UNK         0.3000 
    116 H116       27.2791    0.5860  -12.0568 H         1 UNK         0.0850 
    117 H117       27.0863   -1.9142  -12.1141 H         1 UNK         0.0810 
    118 H118       25.7600   -1.1770  -11.2297 H         1 UNK         0.0810 
    119 H119       27.0764   -1.9558  -10.3546 H         1 UNK         0.0810 
    120 H120       29.2463   -0.7810   -9.3723 H         1 UNK         0.3040 
    121 H121       31.5187   -1.3995  -11.0460 H         1 UNK         0.0766 
    122 H122       32.6374   -1.8002   -8.8384 H         1 UNK         0.0812 
    123 H123       31.2434   -1.1149   -8.0098 H         1 UNK         0.0812 
    124 H124       31.0775   -2.6022   -8.9495 H         1 UNK         0.0812 
    125 H125       30.4536    1.5088   -9.4657 H         1 UNK         0.3205 
    126 H126       31.1434    3.5729   -9.2876 H         1 UNK         0.0754 
    127 H127       32.7469    4.5805  -10.8504 H         1 UNK         0.0769 
    128 H128       31.7110    3.4694  -11.7300 H         1 UNK         0.0769 
    129 H129       33.3626    3.0045  -11.3215 H         1 UNK         0.0769 
    130 H130       32.0754    1.5289   -7.4782 H         1 UNK         0.2981 
    131 H131       34.7249    2.4572   -6.5810 H         1 UNK         0.0541 
    132 H132       31.5012    3.5138   -6.0259 H         1 UNK         0.3459 
    133 H133       31.8376    4.3257   -4.5151 H         1 UNK         0.3459 
    134 H134       34.3992    0.0482   -6.5831 H         1 UNK         0.0612 
    135 H135       34.6921    0.6332   -4.9697 H         1 UNK         0.0612 
    136 H136       33.2726   -2.1937   -6.2471 H         1 UNK         0.0624 
    137 H137       33.8303   -2.0624   -4.5941 H         1 UNK         0.0624 
@<TRIPOS>BOND
     1    1    2 1    
     2    1   72 1    
     3    1   73 1    
     4    1   74 1    
     5    2    3 2    
     6    2    4 am   BACKBONE|DICT|INTERRES
     7    4    5 1    
     8    4   75 1    
     9    5    6 1    
    10    5   35 1    
    11    5   76 1    
    12    6    7 1    
    13    6   77 1    
    14    6   78 1    
    15    7    8 1    
    16    8    9 1    
    17    8   79 1    
    18    8   80 1    
    19    9   10 ar   
    20    9   14 ar   
    21   10   11 ar   
    22   10   81 1    
    23   11   12 ar   
    24   11   71 1    
    25   12   13 ar   
    26   12   82 1    
    27   13   14 ar   
    28   13   15 1    
    29   14   83 1    
    30   15   16 1    
    31   15   84 1    
    32   15   85 1    
    33   16   17 1    
    34   17   18 1    
    35   17   86 1    
    36   17   87 1    
    37   18   19 1    
    38   18   37 1    
    39   18   88 1    
    40   19   20 am   BACKBONE|DICT|INTERRES
    41   19   89 1    
    42   20   21 2    
    43   20   22 1    
    44   22   23 1    
    45   22   24 1    
    46   22   90 1    
    47   23   91 1    
    48   23   92 1    
    49   23   93 1    
    50   24   25 am   BACKBONE|DICT|INTERRES
    51   24   94 1    
    52   25   26 2    
    53   25   27 1    
    54   27   28 1    
    55   27   29 1    
    56   27   95 1    
    57   28   96 1    
    58   28   97 1    
    59   28   98 1    
    60   29   30 am   BACKBONE|DICT|INTERRES
    61   29   99 1    
    62   30   31 2    
    63   30   32 1    
    64   32   33 1    
    65   32   34 1    
    66   32  100 1    
    67   33  101 1    
    68   33  102 1    
    69   33  103 1    
    70   34   35 am   BACKBONE|DICT|INTERRES
    71   34  104 1    
    72   35   36 2    
    73   37   38 2    
    74   37   39 am   BACKBONE|DICT|INTERRES
    75   39   40 1    
    76   39  105 1    
    77   40   41 1    
    78   40   42 1    
    79   40  106 1    
    80   41  107 1    
    81   41  108 1    
    82   41  109 1    
    83   42   43 2    
    84   42   44 am   BACKBONE|DICT|INTERRES
    85   44   45 1    
    86   44  110 1    
    87   45   46 1    
    88   45   47 1    
    89   45  111 1    
    90   46  112 1    
    91   46  113 1    
    92   46  114 1    
    93   47   48 2    
    94   47   49 am   BACKBONE|DICT|INTERRES
    95   49   50 1    
    96   49  115 1    
    97   50   51 1    
    98   50   52 1    
    99   50  116 1    
   100   51  117 1    
   101   51  118 1    
   102   51  119 1    
   103   52   53 2    
   104   52   54 am   BACKBONE|DICT|INTERRES
   105   54   55 1    
   106   54  120 1    
   107   55   56 1    
   108   55   57 1    
   109   55  121 1    
   110   56  122 1    
   111   56  123 1    
   112   56  124 1    
   113   57   58 2    
   114   57   59 am   BACKBONE|DICT|INTERRES
   115   59   60 1    
   116   59  125 1    
   117   60   61 1    
   118   60   62 1    
   119   60  126 1    
   120   61  127 1    
   121   61  128 1    
   122   61  129 1    
   123   62   63 2    
   124   62   64 am   BACKBONE|DICT|INTERRES
   125   64   65 1    
   126   64  130 1    
   127   65   66 1    
   128   65   69 1    
   129   65  131 1    
   130   66   67 am   BACKBONE|DICT|INTERRES
   131   66   68 2    
   132   67  132 1    
   133   67  133 1    
   134   69   70 1    
   135   69  134 1    
   136   69  135 1    
   137   70   71 1    
   138   71  136 1    
   139   71  137 1    
@<TRIPOS>SUBSTRUCTURE
     1 UNK         1 GROUP             0       ****    0 ROOT    
