@<TRIPOS>MOLECULE
3R137
137   139    1
SMALL
USER_CHARGES


@<TRIPOS>ATOM
      1 CA         29.7254   -5.7265   -5.6827 C.3       0 UNK        -0.2020 
      2 C          28.8109   -5.7923   -4.4684 C.2       0 UNK         0.4855 
      3 O          28.3432   -6.8725   -4.1082 O.2       0 UNK        -0.5197 
      4 N          28.5461   -4.6440   -3.8407 N.am      1 UNK        -0.4892 
      5 CA         27.6329   -4.4707   -2.7128 C.3       1 UNK         0.0835 
      6 C6         28.2375   -5.0003   -1.3645 C.3       12 UNK        -0.0855 
      7 S7         28.4894   -3.8486    0.0395 S.3       12 UNK        -0.2931 
      8 C8         30.2893   -3.5917    0.0152 C.3       12 UNK         0.0378 
      9 C9         30.7294   -2.7606   -1.1801 C.ar      12 UNK        -0.0802 
     10 C10        31.3259   -3.3767   -2.2825 C.ar      12 UNK        -0.0944 
     11 C11        31.7637   -2.6145   -3.3676 C.ar      12 UNK        -0.0787 
     12 C12        31.6035   -1.2244   -3.3443 C.ar      12 UNK        -0.0862 
     13 C13        31.0056   -0.5931   -2.2471 C.ar      12 UNK        -0.0733 
     14 C14        30.5684   -1.3714   -1.1697 C.ar      12 UNK        -0.0832 
     15 C15        30.8719    0.9284   -2.1820 C.3       12 UNK         0.0240 
     16 S16        30.2925    1.7061   -3.7288 S.3       12 UNK        -0.2522 
     17 C17        28.6080    1.0299   -3.8688 C.3       12 UNK        -0.0967 
     18 CA         28.0964    1.0588   -5.3343 C.3       5 UNK         0.0660 
     19 N          27.4253   -0.1880   -5.7072 N.am      5 UNK        -0.4015 
     20 C          27.0132   -0.4923   -6.9462 C.2       4 UNK         0.4946 
     21 O          27.1747    0.2367   -7.9242 O.2       4 UNK        -0.5353 
     22 CA         26.2416   -1.8086   -7.1111 C.3       4 UNK         0.0277 
     23 CB         27.2019   -3.0085   -7.1447 C.3       4 UNK        -0.1981 
     24 N          25.2448   -1.9858   -6.0529 N.am      4 UNK        -0.4209 
     25 C          24.1503   -1.2216   -5.9156 C.2       3 UNK         0.4942 
     26 O          23.8333   -0.3292   -6.7004 O.2       3 UNK        -0.5208 
     27 CA         23.2854   -1.4645   -4.6684 C.3       3 UNK         0.0250 
     28 CB         22.3213   -2.6400   -4.8945 C.3       3 UNK        -0.1990 
     29 N          24.0819   -1.7028   -3.4624 N.am      3 UNK        -0.4232 
     30 C          24.9035   -0.8022   -2.9038 C.2       2 UNK         0.4993 
     31 O          25.0716    0.3383   -3.3327 O.2       2 UNK        -0.5286 
     32 CA         25.7177   -1.2742   -1.6920 C.3       2 UNK         0.0209 
     33 CB         24.8906   -1.1667   -0.4014 C.3       2 UNK        -0.1931 
     34 N          26.2321   -2.6392   -1.8385 N.am      2 UNK        -0.4546 
     35 C          27.1251   -3.0134   -2.7648 C.2       1 UNK         0.5154 
     36 O          27.5166   -2.2612   -3.6652 O.2       1 UNK        -0.5181 
     37 C          27.2188    2.2969   -5.6219 C.2       5 UNK         0.5014 
     38 O          27.6952    3.2457   -6.2462 O.2       5 UNK        -0.5248 
     39 N          25.9388    2.2426   -5.2202 N.am      6 UNK        -0.4434 
     40 CA         24.9263    3.2715   -5.4848 C.3       6 UNK         0.0363 
     41 CB         23.6362    2.9305   -4.7227 C.3       6 UNK        -0.1936 
     42 C          24.6265    3.4733   -6.9813 C.2       6 UNK         0.5081 
     43 O          24.3748    4.6036   -7.3987 O.2       6 UNK        -0.5248 
     44 N          24.6922    2.3905   -7.7677 N.am      7 UNK        -0.4718 
     45 CA         24.5697    2.4015   -9.2293 C.3       7 UNK         0.0273 
     46 CB         24.1596    0.9971   -9.7053 C.3       7 UNK        -0.1935 
     47 C          25.8465    2.8724   -9.9569 C.2       7 UNK         0.5018 
     48 O          25.8373    2.9287  -11.1874 O.2       7 UNK        -0.5186 
     49 N          26.9133    3.1862   -9.2047 N.am      8 UNK        -0.4240 
     50 CA         28.2456    3.5994   -9.6595 C.3       8 UNK         0.0235 
     51 CB         28.1893    4.9093  -10.4750 C.3       8 UNK        -0.2000 
     52 C          29.0304    2.4795  -10.3698 C.2       8 UNK         0.4941 
     53 O          29.9573    2.7723  -11.1266 O.2       8 UNK        -0.5273 
     54 N          28.6990    1.2170  -10.0708 N.am      9 UNK        -0.4262 
     55 CA         29.4271    0.0200  -10.4898 C.3       9 UNK         0.0264 
     56 CB         28.4133   -1.0471  -10.9448 C.3       9 UNK        -0.1955 
     57 C          30.3122   -0.4578   -9.3247 C.2       9 UNK         0.5031 
     58 O          30.2726   -1.6321   -8.9516 O.2       9 UNK        -0.5390 
     59 N          31.0684    0.4812   -8.7406 N.am      10 UNK        -0.4204 
     60 CA         31.9520    0.2571   -7.5999 C.3       10 UNK         0.0237 
     61 CB         32.3563    1.6141   -7.0017 C.3       10 UNK        -0.1985 
     62 C          33.1926   -0.5606   -7.9926 C.2       10 UNK         0.4970 
     63 O          33.6918   -0.4371   -9.1134 O.2       10 UNK        -0.4914 
     64 N          33.6701   -1.3601   -7.0379 N.am      11 UNK        -0.4285 
     65 CA         34.8313   -2.2529   -7.1516 C.3       11 UNK         0.1007 
     66 C          36.2105   -1.5609   -6.9408 C.2       11 UNK         0.5703 
     67 N          36.2700   -0.2808   -6.5920 N.am      11 UNK        -0.7361 
     68 O          37.2487   -2.1945   -7.1164 O.2       11 UNK        -0.4986 
     69 C69        34.6454   -3.5079   -6.2527 C.3       12 UNK        -0.0947 
     70 S70        34.2247   -3.1071   -4.5193 S.3       12 UNK        -0.2240 
     71 C71        32.4141   -3.2923   -4.5616 C.3       12 UNK         0.0194 
     72 H72        29.9846   -4.7005   -5.9435 H         1 UNK         0.0906 
     73 H73        30.6471   -6.2744   -5.4892 H         1 UNK         0.0906 
     74 H74        29.2355   -6.1777   -6.5451 H         1 UNK         0.0906 
     75 H75        28.9040   -3.7613   -4.1871 H         1 UNK         0.3140 
     76 H76        26.7492   -5.0738   -2.9347 H         1 UNK         0.1085 
     77 H77        29.1792   -5.5199   -1.5473 H         1 UNK         0.0836 
     78 H78        27.5792   -5.7847   -0.9881 H         1 UNK         0.0836 
     79 H79        30.7982   -4.5569    0.0293 H         1 UNK         0.0731 
     80 H80        30.5830   -3.0834    0.9348 H         1 UNK         0.0731 
     81 H81        31.4551   -4.4504   -2.2933 H         1 UNK         0.1312 
     82 H82        31.9562   -0.6297   -4.1747 H         1 UNK         0.1406 
     83 H83        30.1133   -0.8975   -0.3104 H         1 UNK         0.1631 
     84 H84        31.8466    1.3474   -1.9295 H         1 UNK         0.0717 
     85 H85        30.1946    1.2212   -1.3781 H         1 UNK         0.0717 
     86 H86        28.6438    0.0056   -3.5000 H         1 UNK         0.0934 
     87 H87        27.9432    1.5578   -3.1816 H         1 UNK         0.0934 
     88 H88        28.9564    1.1248   -6.0052 H         1 UNK         0.0739 
     89 H89        27.2844   -0.8676   -4.9643 H         1 UNK         0.3093 
     90 H90        25.7155   -1.7684   -8.0674 H         1 UNK         0.0818 
     91 H91        26.6663   -3.9433   -7.3100 H         1 UNK         0.0819 
     92 H92        27.9255   -2.9024   -7.9545 H         1 UNK         0.0819 
     93 H93        27.7676   -3.1036   -6.2187 H         1 UNK         0.0819 
     94 H94        25.4455   -2.6748   -5.3436 H         1 UNK         0.3041 
     95 H95        22.6911   -0.5636   -4.5006 H         1 UNK         0.0784 
     96 H96        21.7064   -2.4735   -5.7803 H         1 UNK         0.0793 
     97 H97        22.8533   -3.5810   -5.0395 H         1 UNK         0.0793 
     98 H98        21.6424   -2.7640   -4.0506 H         1 UNK         0.0793 
     99 H99        24.0126   -2.6156   -3.0367 H         1 UNK         0.3024 
    100 H100       26.5779   -0.6064   -1.6020 H         1 UNK         0.1171 
    101 H101       25.4930   -1.4064    0.4752 H         1 UNK         0.0786 
    102 H102       24.5121   -0.1525   -0.2645 H         1 UNK         0.0786 
    103 H103       24.0307   -1.8375   -0.4120 H         1 UNK         0.0786 
    104 H104       25.9765   -3.3020   -1.1200 H         1 UNK         0.2977 
    105 H105       25.6323    1.4437   -4.6649 H         1 UNK         0.3127 
    106 H106       25.3115    4.2172   -5.0979 H         1 UNK         0.0770 
    107 H107       23.2212    1.9744   -5.0441 H         1 UNK         0.0814 
    108 H108       22.8717    3.6913   -4.8861 H         1 UNK         0.0814 
    109 H109       23.8131    2.8738   -3.6486 H         1 UNK         0.0814 
    110 H110       24.8512    1.4856   -7.3377 H         1 UNK         0.2983 
    111 H111       23.7739    3.0971   -9.5040 H         1 UNK         0.0947 
    112 H112       24.9233    0.2547   -9.4725 H         1 UNK         0.0806 
    113 H113       24.0026    0.9760  -10.7844 H         1 UNK         0.0806 
    114 H114       23.2281    0.6766   -9.2384 H         1 UNK         0.0806 
    115 H115       26.8239    3.0802   -8.2000 H         1 UNK         0.3000 
    116 H116       28.8071    3.8131   -8.7488 H         1 UNK         0.0850 
    117 H117       29.1913    5.3019  -10.6524 H         1 UNK         0.0810 
    118 H118       27.6296    5.6816   -9.9474 H         1 UNK         0.0810 
    119 H119       27.7243    4.7625  -11.4501 H         1 UNK         0.0810 
    120 H120       27.9815    1.0528   -9.3645 H         1 UNK         0.3040 
    121 H121       30.0847    0.2440  -11.3322 H         1 UNK         0.0766 
    122 H122       28.9221   -1.9459  -11.2954 H         1 UNK         0.0812 
    123 H123       27.7969   -0.6813  -11.7659 H         1 UNK         0.0812 
    124 H124       27.7472   -1.3430  -10.1336 H         1 UNK         0.0812 
    125 H125       31.0759    1.4049   -9.1485 H         1 UNK         0.3205 
    126 H126       31.3865   -0.2971   -6.8469 H         1 UNK         0.0754 
    127 H127       32.9673    1.4830   -6.1077 H         1 UNK         0.0769 
    128 H128       31.4808    2.1939   -6.7072 H         1 UNK         0.0769 
    129 H129       32.9332    2.2124   -7.7083 H         1 UNK         0.0769 
    130 H130       33.2292   -1.3629   -6.1314 H         1 UNK         0.2981 
    131 H131       34.8606   -2.6135   -8.1815 H         1 UNK         0.0541 
    132 H132       37.1705    0.1539   -6.4668 H         1 UNK         0.3459 
    133 H133       35.4280    0.2526   -6.4537 H         1 UNK         0.3459 
    134 H134       33.8573   -4.1381   -6.6678 H         1 UNK         0.0612 
    135 H135       35.5416   -4.1309   -6.2578 H         1 UNK         0.0612 
    136 H136       32.0042   -2.8710   -5.4798 H         1 UNK         0.0624 
    137 H137       32.1734   -4.3560   -4.5797 H         1 UNK         0.0624 
@<TRIPOS>BOND
     1    1    2 1    
     2    1   72 1    
     3    1   73 1    
     4    1   74 1    
     5    2    3 2    
     6    2    4 am   BACKBONE|DICT|INTERRES
     7    4    5 1    
     8    4   75 1    
     9    5    6 1    
    10    5   35 1    
    11    5   76 1    
    12    6    7 1    
    13    6   77 1    
    14    6   78 1    
    15    7    8 1    
    16    8    9 1    
    17    8   79 1    
    18    8   80 1    
    19    9   10 ar   
    20    9   14 ar   
    21   10   11 ar   
    22   10   81 1    
    23   11   12 ar   
    24   11   71 1    
    25   12   13 ar   
    26   12   82 1    
    27   13   14 ar   
    28   13   15 1    
    29   14   83 1    
    30   15   16 1    
    31   15   84 1    
    32   15   85 1    
    33   16   17 1    
    34   17   18 1    
    35   17   86 1    
    36   17   87 1    
    37   18   19 1    
    38   18   37 1    
    39   18   88 1    
    40   19   20 am   BACKBONE|DICT|INTERRES
    41   19   89 1    
    42   20   21 2    
    43   20   22 1    
    44   22   23 1    
    45   22   24 1    
    46   22   90 1    
    47   23   91 1    
    48   23   92 1    
    49   23   93 1    
    50   24   25 am   BACKBONE|DICT|INTERRES
    51   24   94 1    
    52   25   26 2    
    53   25   27 1    
    54   27   28 1    
    55   27   29 1    
    56   27   95 1    
    57   28   96 1    
    58   28   97 1    
    59   28   98 1    
    60   29   30 am   BACKBONE|DICT|INTERRES
    61   29   99 1    
    62   30   31 2    
    63   30   32 1    
    64   32   33 1    
    65   32   34 1    
    66   32  100 1    
    67   33  101 1    
    68   33  102 1    
    69   33  103 1    
    70   34   35 am   BACKBONE|DICT|INTERRES
    71   34  104 1    
    72   35   36 2    
    73   37   38 2    
    74   37   39 am   BACKBONE|DICT|INTERRES
    75   39   40 1    
    76   39  105 1    
    77   40   41 1    
    78   40   42 1    
    79   40  106 1    
    80   41  107 1    
    81   41  108 1    
    82   41  109 1    
    83   42   43 2    
    84   42   44 am   BACKBONE|DICT|INTERRES
    85   44   45 1    
    86   44  110 1    
    87   45   46 1    
    88   45   47 1    
    89   45  111 1    
    90   46  112 1    
    91   46  113 1    
    92   46  114 1    
    93   47   48 2    
    94   47   49 am   BACKBONE|DICT|INTERRES
    95   49   50 1    
    96   49  115 1    
    97   50   51 1    
    98   50   52 1    
    99   50  116 1    
   100   51  117 1    
   101   51  118 1    
   102   51  119 1    
   103   52   53 2    
   104   52   54 am   BACKBONE|DICT|INTERRES
   105   54   55 1    
   106   54  120 1    
   107   55   56 1    
   108   55   57 1    
   109   55  121 1    
   110   56  122 1    
   111   56  123 1    
   112   56  124 1    
   113   57   58 2    
   114   57   59 am   BACKBONE|DICT|INTERRES
   115   59   60 1    
   116   59  125 1    
   117   60   61 1    
   118   60   62 1    
   119   60  126 1    
   120   61  127 1    
   121   61  128 1    
   122   61  129 1    
   123   62   63 2    
   124   62   64 am   BACKBONE|DICT|INTERRES
   125   64   65 1    
   126   64  130 1    
   127   65   66 1    
   128   65   69 1    
   129   65  131 1    
   130   66   67 am   BACKBONE|DICT|INTERRES
   131   66   68 2    
   132   67  132 1    
   133   67  133 1    
   134   69   70 1    
   135   69  134 1    
   136   69  135 1    
   137   70   71 1    
   138   71  136 1    
   139   71  137 1    
@<TRIPOS>SUBSTRUCTURE
     1 UNK         1 GROUP             0       ****    0 ROOT    
