@<TRIPOS>MOLECULE
3R137
137   139    1
SMALL
USER_CHARGES


@<TRIPOS>ATOM
      1 CA         23.1930   -3.5977   -0.0655 C.3       0 UNK        -0.2020 
      2 C          24.6682   -3.2466   -0.1781 C.2       0 UNK         0.4855 
      3 O          25.0665   -2.1433    0.1952 O.2       0 UNK        -0.5197 
      4 N          25.4888   -4.1753   -0.6856 N.am      1 UNK        -0.4892 
      5 CA         26.9356   -3.9955   -0.8424 C.3       1 UNK         0.0835 
      6 C6         27.6545   -5.3416   -1.0950 C.3       12 UNK        -0.0855 
      7 S7         29.3943   -5.2917   -0.5413 S.3       12 UNK        -0.2931 
      8 C8         30.2613   -6.1309   -1.9036 C.3       12 UNK         0.0378 
      9 C9         30.3013   -5.2888   -3.1705 C.ar      12 UNK        -0.0802 
     10 C10        31.2302   -4.2514   -3.2999 C.ar      12 UNK        -0.0944 
     11 C11        31.3060   -3.4951   -4.4750 C.ar      12 UNK        -0.0787 
     12 C12        30.4227   -3.7888   -5.5231 C.ar      12 UNK        -0.0862 
     13 C13        29.4786   -4.8127   -5.3997 C.ar      12 UNK        -0.0733 
     14 C14        29.4286   -5.5650   -4.2255 C.ar      12 UNK        -0.0832 
     15 C15        28.5069   -5.1056   -6.5336 C.3       12 UNK         0.0240 
     16 S16        26.9338   -4.2183   -6.3073 S.3       12 UNK        -0.2522 
     17 C17        27.5039   -2.4983   -6.4957 C.3       12 UNK        -0.0967 
     18 CA         26.3482   -1.4757   -6.6021 C.3       5 UNK         0.0660 
     19 N          25.4933   -1.5092   -5.4102 N.am      5 UNK        -0.4015 
     20 C          24.1973   -1.1768   -5.3729 C.2       4 UNK         0.4946 
     21 O          23.5620   -0.7858   -6.3520 O.2       4 UNK        -0.5353 
     22 CA         23.5152   -1.2327   -3.9992 C.3       4 UNK         0.0277 
     23 CB         23.1268   -2.6749   -3.6368 C.3       4 UNK        -0.1981 
     24 N          24.3775   -0.6549   -2.9641 N.am      4 UNK        -0.4209 
     25 C          24.5259    0.6657   -2.7742 C.2       3 UNK         0.4942 
     26 O          23.8555    1.5151   -3.3612 O.2       3 UNK        -0.5208 
     27 CA         25.6128    1.1307   -1.7883 C.3       3 UNK         0.0250 
     28 CB         25.0230    1.3456   -0.3856 C.3       3 UNK        -0.1990 
     29 N          26.7488    0.2079   -1.7164 N.am      3 UNK        -0.4232 
     30 C          27.6714    0.0781   -2.6835 C.2       2 UNK         0.4993 
     31 O          27.6955    0.7766   -3.6927 O.2       2 UNK        -0.5286 
     32 CA         28.7311   -1.0288   -2.5233 C.3       2 UNK         0.0209 
     33 CB         30.0408   -0.4431   -1.9732 C.3       2 UNK        -0.1931 
     34 N          28.3051   -2.1419   -1.6708 N.am      2 UNK        -0.4546 
     35 C          27.2579   -2.9385   -1.9203 C.2       1 UNK         0.5154 
     36 O          26.5411   -2.8274   -2.9202 O.2       1 UNK        -0.5181 
     37 C          26.8927   -0.0605   -6.9159 C.2       5 UNK         0.5014 
     38 O          27.9275    0.0475   -7.5735 O.2       5 UNK        -0.5248 
     39 N          26.2114    1.0053   -6.4701 N.am      6 UNK        -0.4434 
     40 CA         26.6632    2.3985   -6.5756 C.3       6 UNK         0.0363 
     41 CB         25.6874    3.3062   -5.8111 C.3       6 UNK        -0.1936 
     42 C          26.8608    2.9089   -8.0155 C.2       6 UNK         0.5081 
     43 O          27.6270    3.8512   -8.2188 O.2       6 UNK        -0.5248 
     44 N          26.1761    2.2820   -8.9806 N.am      7 UNK        -0.4718 
     45 CA         26.2876    2.5697  -10.4109 C.3       7 UNK         0.0273 
     46 CB         24.9548    2.2049  -11.0872 C.3       7 UNK        -0.1935 
     47 C          27.4580    1.8411  -11.1016 C.2       7 UNK         0.5018 
     48 O          27.7432    2.1591  -12.2579 O.2       7 UNK        -0.5186 
     49 N          28.0946    0.8690  -10.4296 N.am      8 UNK        -0.4240 
     50 CA         29.2217    0.1046  -10.9724 C.3       8 UNK         0.0235 
     51 CB         29.3448   -1.2298  -10.2169 C.3       8 UNK        -0.2000 
     52 C          30.5349    0.8999  -10.8889 C.2       8 UNK         0.4941 
     53 O          30.6393    1.8471  -10.1051 O.2       8 UNK        -0.5273 
     54 N          31.5282    0.4819  -11.6858 N.am      9 UNK        -0.4262 
     55 CA         32.8755    1.0588  -11.7151 C.3       9 UNK         0.0264 
     56 CB         33.7103    0.3560  -12.7979 C.3       9 UNK        -0.1955 
     57 C          33.5675    0.9569  -10.3451 C.2       9 UNK         0.5031 
     58 O          33.5600   -0.1197   -9.7433 O.2       9 UNK        -0.5390 
     59 N          34.1180    2.0843   -9.8747 N.am      10 UNK        -0.4204 
     60 CA         34.7547    2.3246   -8.5701 C.3       10 UNK         0.0237 
     61 CB         35.9805    1.4145   -8.3537 C.3       10 UNK        -0.1985 
     62 C          33.7955    2.2619   -7.3645 C.2       10 UNK         0.4970 
     63 O          33.8854    3.1252   -6.4905 O.2       10 UNK        -0.4914 
     64 N          32.9123    1.2590   -7.3271 N.am      11 UNK        -0.4285 
     65 CA         31.9172    1.0429   -6.2661 C.3       11 UNK         0.1007 
     66 C          30.7855    2.1081   -6.2394 C.2       11 UNK         0.5703 
     67 N          30.3686    2.6562   -7.3743 N.am      11 UNK        -0.7361 
     68 O          30.3042    2.4631   -5.1673 O.2       11 UNK        -0.4986 
     69 C69        31.3351   -0.3942   -6.3049 C.3       12 UNK        -0.0947 
     70 S70        32.6414   -1.6688   -6.2121 S.3       12 UNK        -0.2240 
     71 C71        32.3610   -2.3873   -4.5567 C.3       12 UNK         0.0194 
     72 H72        22.9564   -3.8911    0.9567 H         1 UNK         0.0906 
     73 H73        22.9201   -4.4169   -0.7305 H         1 UNK         0.0906 
     74 H74        22.5784   -2.7345   -0.3194 H         1 UNK         0.0906 
     75 H75        25.1110   -5.0524   -1.0145 H         1 UNK         0.3140 
     76 H76        27.2873   -3.6049    0.1160 H         1 UNK         0.1085 
     77 H77        27.1731   -6.1372   -0.5240 H         1 UNK         0.0836 
     78 H78        27.5746   -5.6402   -2.1406 H         1 UNK         0.0836 
     79 H79        31.2818   -6.3506   -1.5860 H         1 UNK         0.0731 
     80 H80        29.7903   -7.0969   -2.0929 H         1 UNK         0.0731 
     81 H81        31.9051   -4.0391   -2.4816 H         1 UNK         0.1312 
     82 H82        30.4507   -3.2205   -6.4411 H         1 UNK         0.1406 
     83 H83        28.7056   -6.3643   -4.1355 H         1 UNK         0.1631 
     84 H84        28.3045   -6.1766   -6.5818 H         1 UNK         0.0717 
     85 H85        28.9458   -4.8360   -7.4956 H         1 UNK         0.0717 
     86 H86        28.1430   -2.2452   -5.6491 H         1 UNK         0.0934 
     87 H87        28.1363   -2.4623   -7.3850 H         1 UNK         0.0934 
     88 H88        25.7410   -1.7593   -7.4643 H         1 UNK         0.0739 
     89 H89        25.9272   -1.8628   -4.5622 H         1 UNK         0.3093 
     90 H90        22.5948   -0.6476   -4.0614 H         1 UNK         0.0818 
     91 H91        22.5314   -3.1280   -4.4307 H         1 UNK         0.0819 
     92 H92        23.9983   -3.3114   -3.4825 H         1 UNK         0.0819 
     93 H93        22.5215   -2.7010   -2.7324 H         1 UNK         0.0819 
     94 H94        24.9904   -1.2915   -2.4700 H         1 UNK         0.3041 
     95 H95        25.9840    2.0944   -2.1447 H         1 UNK         0.0784 
     96 H96        24.2183    2.0817   -0.4127 H         1 UNK         0.0793 
     97 H97        24.6060    0.4269    0.0265 H         1 UNK         0.0793 
     98 H98        25.7759    1.7158    0.3103 H         1 UNK         0.0793 
     99 H99        26.7853   -0.4123   -0.9190 H         1 UNK         0.3024 
    100 H100       28.9291   -1.4360   -3.5171 H         1 UNK         0.1171 
    101 H101       29.8990    0.0110   -0.9917 H         1 UNK         0.0786 
    102 H102       30.8112   -1.2083   -1.8796 H         1 UNK         0.0786 
    103 H103       30.4289    0.3302   -2.6385 H         1 UNK         0.0786 
    104 H104       28.8552   -2.3109   -0.8403 H         1 UNK         0.2977 
    105 H105       25.3565    0.8440   -5.9574 H         1 UNK         0.3127 
    106 H106       27.6346    2.4565   -6.0808 H         1 UNK         0.0770 
    107 H107       25.9887    4.3524   -5.8800 H         1 UNK         0.0814 
    108 H108       24.6722    3.2304   -6.2024 H         1 UNK         0.0814 
    109 H109       25.6620    3.0504   -4.7519 H         1 UNK         0.0814 
    110 H110       25.5720    1.5184   -8.7132 H         1 UNK         0.2983 
    111 H111       26.4542    3.6410  -10.5449 H         1 UNK         0.0947 
    112 H112       24.7336    1.1407  -10.9970 H         1 UNK         0.0806 
    113 H113       24.9774    2.4434  -12.1516 H         1 UNK         0.0806 
    114 H114       24.1236    2.7599  -10.6519 H         1 UNK         0.0806 
    115 H115       27.8786    0.7153   -9.4490 H         1 UNK         0.3000 
    116 H116       29.0179   -0.1144  -12.0230 H         1 UNK         0.0850 
    117 H117       30.0962   -1.8737  -10.6752 H         1 UNK         0.0810 
    118 H118       28.4029   -1.7786  -10.2189 H         1 UNK         0.0810 
    119 H119       29.6419   -1.0793   -9.1800 H         1 UNK         0.0810 
    120 H120       31.3731   -0.3252  -12.2721 H         1 UNK         0.3040 
    121 H121       32.7743    2.1117  -11.9867 H         1 UNK         0.0766 
    122 H122       34.7127    0.7826  -12.8557 H         1 UNK         0.0812 
    123 H123       33.2568    0.4634  -13.7835 H         1 UNK         0.0812 
    124 H124       33.8220   -0.7095  -12.5924 H         1 UNK         0.0812 
    125 H125       34.0280    2.9110  -10.4501 H         1 UNK         0.3205 
    126 H126       35.1218    3.3514   -8.6154 H         1 UNK         0.0754 
    127 H127       36.5077    1.6863   -7.4382 H         1 UNK         0.0769 
    128 H128       36.6908    1.5037   -9.1756 H         1 UNK         0.0769 
    129 H129       35.7012    0.3643   -8.2636 H         1 UNK         0.0769 
    130 H130       32.9306    0.5817   -8.0842 H         1 UNK         0.2981 
    131 H131       32.4475    1.1427   -5.3168 H         1 UNK         0.0541 
    132 H132       29.6211    3.3340   -7.3557 H         1 UNK         0.3459 
    133 H133       30.7027    2.3265   -8.2757 H         1 UNK         0.3459 
    134 H134       30.7760   -0.5484   -7.2281 H         1 UNK         0.0612 
    135 H135       30.6216   -0.5438   -5.4921 H         1 UNK         0.0612 
    136 H136       32.1071   -1.5889   -3.8595 H         1 UNK         0.0624 
    137 H137       33.3142   -2.7955   -4.2178 H         1 UNK         0.0624 
@<TRIPOS>BOND
     1    1    2 1    
     2    1   72 1    
     3    1   73 1    
     4    1   74 1    
     5    2    3 2    
     6    2    4 am   BACKBONE|DICT|INTERRES
     7    4    5 1    
     8    4   75 1    
     9    5    6 1    
    10    5   35 1    
    11    5   76 1    
    12    6    7 1    
    13    6   77 1    
    14    6   78 1    
    15    7    8 1    
    16    8    9 1    
    17    8   79 1    
    18    8   80 1    
    19    9   10 ar   
    20    9   14 ar   
    21   10   11 ar   
    22   10   81 1    
    23   11   12 ar   
    24   11   71 1    
    25   12   13 ar   
    26   12   82 1    
    27   13   14 ar   
    28   13   15 1    
    29   14   83 1    
    30   15   16 1    
    31   15   84 1    
    32   15   85 1    
    33   16   17 1    
    34   17   18 1    
    35   17   86 1    
    36   17   87 1    
    37   18   19 1    
    38   18   37 1    
    39   18   88 1    
    40   19   20 am   BACKBONE|DICT|INTERRES
    41   19   89 1    
    42   20   21 2    
    43   20   22 1    
    44   22   23 1    
    45   22   24 1    
    46   22   90 1    
    47   23   91 1    
    48   23   92 1    
    49   23   93 1    
    50   24   25 am   BACKBONE|DICT|INTERRES
    51   24   94 1    
    52   25   26 2    
    53   25   27 1    
    54   27   28 1    
    55   27   29 1    
    56   27   95 1    
    57   28   96 1    
    58   28   97 1    
    59   28   98 1    
    60   29   30 am   BACKBONE|DICT|INTERRES
    61   29   99 1    
    62   30   31 2    
    63   30   32 1    
    64   32   33 1    
    65   32   34 1    
    66   32  100 1    
    67   33  101 1    
    68   33  102 1    
    69   33  103 1    
    70   34   35 am   BACKBONE|DICT|INTERRES
    71   34  104 1    
    72   35   36 2    
    73   37   38 2    
    74   37   39 am   BACKBONE|DICT|INTERRES
    75   39   40 1    
    76   39  105 1    
    77   40   41 1    
    78   40   42 1    
    79   40  106 1    
    80   41  107 1    
    81   41  108 1    
    82   41  109 1    
    83   42   43 2    
    84   42   44 am   BACKBONE|DICT|INTERRES
    85   44   45 1    
    86   44  110 1    
    87   45   46 1    
    88   45   47 1    
    89   45  111 1    
    90   46  112 1    
    91   46  113 1    
    92   46  114 1    
    93   47   48 2    
    94   47   49 am   BACKBONE|DICT|INTERRES
    95   49   50 1    
    96   49  115 1    
    97   50   51 1    
    98   50   52 1    
    99   50  116 1    
   100   51  117 1    
   101   51  118 1    
   102   51  119 1    
   103   52   53 2    
   104   52   54 am   BACKBONE|DICT|INTERRES
   105   54   55 1    
   106   54  120 1    
   107   55   56 1    
   108   55   57 1    
   109   55  121 1    
   110   56  122 1    
   111   56  123 1    
   112   56  124 1    
   113   57   58 2    
   114   57   59 am   BACKBONE|DICT|INTERRES
   115   59   60 1    
   116   59  125 1    
   117   60   61 1    
   118   60   62 1    
   119   60  126 1    
   120   61  127 1    
   121   61  128 1    
   122   61  129 1    
   123   62   63 2    
   124   62   64 am   BACKBONE|DICT|INTERRES
   125   64   65 1    
   126   64  130 1    
   127   65   66 1    
   128   65   69 1    
   129   65  131 1    
   130   66   67 am   BACKBONE|DICT|INTERRES
   131   66   68 2    
   132   67  132 1    
   133   67  133 1    
   134   69   70 1    
   135   69  134 1    
   136   69  135 1    
   137   70   71 1    
   138   71  136 1    
   139   71  137 1    
@<TRIPOS>SUBSTRUCTURE
     1 UNK         1 GROUP             0       ****    0 ROOT    
