@<TRIPOS>MOLECULE
3R137
137   139    1
SMALL
USER_CHARGES


@<TRIPOS>ATOM
      1 CA         25.1497   -1.5752   -7.2039 C.3       0 UNK        -0.2020 
      2 C          25.0576   -2.6882   -6.1726 C.2       0 UNK         0.4855 
      3 O          23.9632   -3.1850   -5.9041 O.2       0 UNK        -0.5197 
      4 N          26.1992   -3.0753   -5.5906 N.am      1 UNK        -0.4892 
      5 CA         26.3522   -4.1136   -4.5670 C.3       1 UNK         0.0835 
      6 C6         27.8362   -4.3082   -4.1792 C.3       12 UNK        -0.0855 
      7 S7         28.8427   -4.9452   -5.5592 S.3       12 UNK        -0.2931 
      8 C8         30.3805   -5.3900   -4.6891 C.3       12 UNK         0.0378 
      9 C9         31.1451   -4.1595   -4.2205 C.ar      12 UNK        -0.0802 
     10 C10        32.1005   -3.5661   -5.0506 C.ar      12 UNK        -0.0944 
     11 C11        32.8107   -2.4344   -4.6369 C.ar      12 UNK        -0.0787 
     12 C12        32.5484   -1.8981   -3.3687 C.ar      12 UNK        -0.0862 
     13 C13        31.5900   -2.4762   -2.5320 C.ar      12 UNK        -0.0733 
     14 C14        30.9026   -3.6152   -2.9566 C.ar      12 UNK        -0.0832 
     15 C15        31.3022   -1.8773   -1.1634 C.3       12 UNK         0.0240 
     16 S16        29.7332   -0.9522   -1.1395 S.3       12 UNK        -0.2522 
     17 C17        30.1119    0.4908   -2.1941 C.3       12 UNK        -0.0967 
     18 CA         29.1239    0.6303   -3.3827 C.3       5 UNK         0.0660 
     19 N          27.7433    0.8071   -2.9116 N.am      5 UNK        -0.4015 
     20 C          26.6373    0.5035   -3.6003 C.2       4 UNK         0.4946 
     21 O          26.6458   -0.0262   -4.7146 O.2       4 UNK        -0.5353 
     22 CA         25.3113    0.9789   -2.9997 C.3       4 UNK         0.0277 
     23 CB         25.0310    2.4198   -3.4796 C.3       4 UNK        -0.1981 
     24 N          24.2466    0.0660   -3.4127 N.am      4 UNK        -0.4209 
     25 C          22.9659    0.1157   -3.0209 C.2       3 UNK         0.4942 
     26 O          22.5098    0.9645   -2.2537 O.2       3 UNK        -0.5208 
     27 CA         22.0339   -0.9843   -3.5551 C.3       3 UNK         0.0250 
     28 CB         21.6929   -0.7581   -5.0370 C.3       3 UNK        -0.1990 
     29 N          22.6012   -2.3203   -3.3614 N.am      3 UNK        -0.4232 
     30 C          22.6841   -2.9259   -2.1655 C.2       2 UNK         0.4993 
     31 O          22.2173   -2.4539   -1.1278 O.2       2 UNK        -0.5286 
     32 CA         23.4026   -4.2860   -2.0967 C.3       2 UNK         0.0209 
     33 CB         22.3820   -5.4360   -2.1122 C.3       2 UNK        -0.1931 
     34 N          24.3779   -4.4944   -3.1690 N.am      2 UNK        -0.4546 
     35 C          25.5073   -3.7899   -3.3198 C.2       1 UNK         0.5154 
     36 O          25.8715   -2.9026   -2.5457 O.2       1 UNK        -0.5181 
     37 C          29.5064    1.7964   -4.3279 C.2       5 UNK         0.5014 
     38 O          30.4656    2.5215   -4.0593 O.2       5 UNK        -0.5248 
     39 N          28.7023    1.9949   -5.3788 N.am      6 UNK        -0.4434 
     40 CA         28.7610    3.1255   -6.3058 C.3       6 UNK         0.0363 
     41 CB         27.3312    3.6816   -6.4634 C.3       6 UNK        -0.1936 
     42 C          29.3713    2.7070   -7.6536 C.2       6 UNK         0.5081 
     43 O          30.0070    1.6546   -7.7519 O.2       6 UNK        -0.5248 
     44 N          29.1581    3.5268   -8.6932 N.am      7 UNK        -0.4718 
     45 CA         29.5970    3.2781  -10.0731 C.3       7 UNK         0.0273 
     46 CB         29.2055    4.4699  -10.9601 C.3       7 UNK        -0.1935 
     47 C          29.0558    1.9636  -10.6621 C.2       7 UNK         0.5018 
     48 O          29.7825    1.2815  -11.3827 O.2       7 UNK        -0.5186 
     49 N          27.8257    1.5930  -10.2788 N.am      8 UNK        -0.4240 
     50 CA         27.1930    0.3108  -10.6044 C.3       8 UNK         0.0235 
     51 CB         25.7115    0.3663  -10.1983 C.3       8 UNK        -0.2000 
     52 C          27.8889   -0.9090   -9.9661 C.2       8 UNK         0.4941 
     53 O          27.7722   -2.0105  -10.5028 O.2       8 UNK        -0.5273 
     54 N          28.6082   -0.6960   -8.8544 N.am      9 UNK        -0.4262 
     55 CA         29.4505   -1.6961   -8.1934 C.3       9 UNK         0.0264 
     56 CB         29.4301   -1.4305   -6.6777 C.3       9 UNK        -0.1955 
     57 C          30.9028   -1.6643   -8.7091 C.2       9 UNK         0.5031 
     58 O          31.6870   -2.5281   -8.3194 O.2       9 UNK        -0.5390 
     59 N          31.2398   -0.6679   -9.5447 N.am      10 UNK        -0.4204 
     60 CA         32.5791   -0.2922  -10.0103 C.3       10 UNK         0.0237 
     61 CB         33.2510   -1.4333  -10.8052 C.3       10 UNK        -0.1985 
     62 C          33.4689    0.2796   -8.8867 C.2       10 UNK         0.4970 
     63 O          34.6872    0.1000   -8.9299 O.2       10 UNK        -0.4914 
     64 N          32.8537    0.9792   -7.9230 N.am      11 UNK        -0.4285 
     65 CA         33.5221    1.6611   -6.8009 C.3       11 UNK         0.1007 
     66 C          33.2040    3.1841   -6.7347 C.2       11 UNK         0.5703 
     67 N          32.6039    3.7813   -7.7575 N.am      11 UNK        -0.7361 
     68 O          33.5527    3.8539   -5.7655 O.2       11 UNK        -0.4986 
     69 C69        33.2717    0.9132   -5.4580 C.3       12 UNK        -0.0947 
     70 S70        34.6121   -0.2689   -5.0962 S.3       12 UNK        -0.2240 
     71 C71        33.8577   -1.8541   -5.5909 C.3       12 UNK         0.0194 
     72 H72        26.1844   -1.3296   -7.4366 H         1 UNK         0.0906 
     73 H73        24.6553   -1.8750   -8.1273 H         1 UNK         0.0906 
     74 H74        24.6685   -0.6720   -6.8313 H         1 UNK         0.0906 
     75 H75        27.0529   -2.5927   -5.8273 H         1 UNK         0.3140 
     76 H76        25.9887   -5.0508   -4.9939 H         1 UNK         0.1085 
     77 H77        27.9239   -5.0085   -3.3458 H         1 UNK         0.0836 
     78 H78        28.2630   -3.3626   -3.8381 H         1 UNK         0.0836 
     79 H79        31.0057   -5.9779   -5.3628 H         1 UNK         0.0731 
     80 H80        30.1515   -6.0418   -3.8446 H         1 UNK         0.0731 
     81 H81        32.2874   -3.9835   -6.0312 H         1 UNK         0.1312 
     82 H82        33.0851   -1.0287   -3.0188 H         1 UNK         0.1406 
     83 H83        30.1660   -4.0666   -2.3060 H         1 UNK         0.1631 
     84 H84        32.1143   -1.2223   -0.8439 H         1 UNK         0.0717 
     85 H85        31.2492   -2.6774   -0.4237 H         1 UNK         0.0717 
     86 H86        30.0898    1.3846   -1.5677 H         1 UNK         0.0934 
     87 H87        31.1361    0.4130   -2.5609 H         1 UNK         0.0934 
     88 H88        29.1801   -0.2897   -3.9685 H         1 UNK         0.0739 
     89 H89        27.6460    1.2679   -2.0188 H         1 UNK         0.3093 
     90 H90        25.3830    0.9553   -1.9104 H         1 UNK         0.0818 
     91 H91        25.8664    3.0822   -3.2488 H         1 UNK         0.0819 
     92 H92        24.8733    2.4580   -4.5583 H         1 UNK         0.0819 
     93 H93        24.1520    2.8476   -2.9988 H         1 UNK         0.0819 
     94 H94        24.5575   -0.6767   -4.0255 H         1 UNK         0.3041 
     95 H95        21.0994   -0.9288   -2.9920 H         1 UNK         0.0784 
     96 H96        21.2266    0.2172   -5.1832 H         1 UNK         0.0793 
     97 H97        22.5775   -0.7924   -5.6710 H         1 UNK         0.0793 
     98 H98        20.9926   -1.5100   -5.4011 H         1 UNK         0.0793 
     99 H99        23.0126   -2.7719   -4.1735 H         1 UNK         0.3024 
    100 H100       23.9402   -4.3153   -1.1460 H         1 UNK         0.1171 
    101 H101       21.8244   -5.4685   -3.0492 H         1 UNK         0.0786 
    102 H102       22.8688   -6.4019   -1.9756 H         1 UNK         0.0786 
    103 H103       21.6563   -5.3247   -1.3051 H         1 UNK         0.0786 
    104 H104       24.1311   -5.1718   -3.8770 H         1 UNK         0.2977 
    105 H105       27.9535    1.3248   -5.5221 H         1 UNK         0.3127 
    106 H106       29.3961    3.9140   -5.8970 H         1 UNK         0.0770 
    107 H107       27.3138    4.6002   -7.0505 H         1 UNK         0.0814 
    108 H108       26.8995    3.9279   -5.4934 H         1 UNK         0.0814 
    109 H109       26.6672    2.9641   -6.9477 H         1 UNK         0.0814 
    110 H110       28.6426    4.3806   -8.5333 H         1 UNK         0.2983 
    111 H111       30.6858    3.2028  -10.0663 H         1 UNK         0.0947 
    112 H112       29.5366    4.3165  -11.9884 H         1 UNK         0.0806 
    113 H113       29.6658    5.3938  -10.6095 H         1 UNK         0.0806 
    114 H114       28.1255    4.6203  -10.9847 H         1 UNK         0.0806 
    115 H115       27.3040    2.2229   -9.6871 H         1 UNK         0.3000 
    116 H116       27.2456    0.1786  -11.6873 H         1 UNK         0.0850 
    117 H117       25.5906    0.5737   -9.1348 H         1 UNK         0.0810 
    118 H118       25.2114   -0.5804  -10.4080 H         1 UNK         0.0810 
    119 H119       25.1788    1.1397  -10.7520 H         1 UNK         0.0810 
    120 H120       28.6948    0.2478   -8.4951 H         1 UNK         0.3040 
    121 H121       29.0486   -2.6956   -8.3731 H         1 UNK         0.0766 
    122 H122       28.4168   -1.3258   -6.2962 H         1 UNK         0.0812 
    123 H123       29.9826   -0.5294   -6.4144 H         1 UNK         0.0812 
    124 H124       29.8981   -2.2511   -6.1367 H         1 UNK         0.0812 
    125 H125       30.5021   -0.0428   -9.8455 H         1 UNK         0.3205 
    126 H126       32.4244    0.5327  -10.7072 H         1 UNK         0.0754 
    127 H127       34.1591   -1.0833  -11.2973 H         1 UNK         0.0769 
    128 H128       32.5904   -1.8176  -11.5824 H         1 UNK         0.0769 
    129 H129       33.5344   -2.2665  -10.1616 H         1 UNK         0.0769 
    130 H130       31.8434    1.0918   -7.9502 H         1 UNK         0.2981 
    131 H131       34.5971    1.6687   -6.9882 H         1 UNK         0.0541 
    132 H132       32.3569    3.2588   -8.5799 H         1 UNK         0.3459 
    133 H133       32.4301    4.7725   -7.7128 H         1 UNK         0.3459 
    134 H134       32.3056    0.4052   -5.4614 H         1 UNK         0.0612 
    135 H135       33.2337    1.5958   -4.6077 H         1 UNK         0.0612 
    136 H136       34.6594   -2.5852   -5.7011 H         1 UNK         0.0624 
    137 H137       33.4202   -1.7283   -6.5803 H         1 UNK         0.0624 
@<TRIPOS>BOND
     1    1    2 1    
     2    1   72 1    
     3    1   73 1    
     4    1   74 1    
     5    2    3 2    
     6    2    4 am   BACKBONE|DICT|INTERRES
     7    4    5 1    
     8    4   75 1    
     9    5    6 1    
    10    5   35 1    
    11    5   76 1    
    12    6    7 1    
    13    6   77 1    
    14    6   78 1    
    15    7    8 1    
    16    8    9 1    
    17    8   79 1    
    18    8   80 1    
    19    9   10 ar   
    20    9   14 ar   
    21   10   11 ar   
    22   10   81 1    
    23   11   12 ar   
    24   11   71 1    
    25   12   13 ar   
    26   12   82 1    
    27   13   14 ar   
    28   13   15 1    
    29   14   83 1    
    30   15   16 1    
    31   15   84 1    
    32   15   85 1    
    33   16   17 1    
    34   17   18 1    
    35   17   86 1    
    36   17   87 1    
    37   18   19 1    
    38   18   37 1    
    39   18   88 1    
    40   19   20 am   BACKBONE|DICT|INTERRES
    41   19   89 1    
    42   20   21 2    
    43   20   22 1    
    44   22   23 1    
    45   22   24 1    
    46   22   90 1    
    47   23   91 1    
    48   23   92 1    
    49   23   93 1    
    50   24   25 am   BACKBONE|DICT|INTERRES
    51   24   94 1    
    52   25   26 2    
    53   25   27 1    
    54   27   28 1    
    55   27   29 1    
    56   27   95 1    
    57   28   96 1    
    58   28   97 1    
    59   28   98 1    
    60   29   30 am   BACKBONE|DICT|INTERRES
    61   29   99 1    
    62   30   31 2    
    63   30   32 1    
    64   32   33 1    
    65   32   34 1    
    66   32  100 1    
    67   33  101 1    
    68   33  102 1    
    69   33  103 1    
    70   34   35 am   BACKBONE|DICT|INTERRES
    71   34  104 1    
    72   35   36 2    
    73   37   38 2    
    74   37   39 am   BACKBONE|DICT|INTERRES
    75   39   40 1    
    76   39  105 1    
    77   40   41 1    
    78   40   42 1    
    79   40  106 1    
    80   41  107 1    
    81   41  108 1    
    82   41  109 1    
    83   42   43 2    
    84   42   44 am   BACKBONE|DICT|INTERRES
    85   44   45 1    
    86   44  110 1    
    87   45   46 1    
    88   45   47 1    
    89   45  111 1    
    90   46  112 1    
    91   46  113 1    
    92   46  114 1    
    93   47   48 2    
    94   47   49 am   BACKBONE|DICT|INTERRES
    95   49   50 1    
    96   49  115 1    
    97   50   51 1    
    98   50   52 1    
    99   50  116 1    
   100   51  117 1    
   101   51  118 1    
   102   51  119 1    
   103   52   53 2    
   104   52   54 am   BACKBONE|DICT|INTERRES
   105   54   55 1    
   106   54  120 1    
   107   55   56 1    
   108   55   57 1    
   109   55  121 1    
   110   56  122 1    
   111   56  123 1    
   112   56  124 1    
   113   57   58 2    
   114   57   59 am   BACKBONE|DICT|INTERRES
   115   59   60 1    
   116   59  125 1    
   117   60   61 1    
   118   60   62 1    
   119   60  126 1    
   120   61  127 1    
   121   61  128 1    
   122   61  129 1    
   123   62   63 2    
   124   62   64 am   BACKBONE|DICT|INTERRES
   125   64   65 1    
   126   64  130 1    
   127   65   66 1    
   128   65   69 1    
   129   65  131 1    
   130   66   67 am   BACKBONE|DICT|INTERRES
   131   66   68 2    
   132   67  132 1    
   133   67  133 1    
   134   69   70 1    
   135   69  134 1    
   136   69  135 1    
   137   70   71 1    
   138   71  136 1    
   139   71  137 1    
@<TRIPOS>SUBSTRUCTURE
     1 UNK         1 GROUP             0       ****    0 ROOT    
