@<TRIPOS>MOLECULE
3R137
137   139    1
SMALL
USER_CHARGES


@<TRIPOS>ATOM
      1 CA         28.4643   -2.0896    2.7300 C.3       0 UNK        -0.2020 
      2 C          28.3295   -1.8397    1.2358 C.2       0 UNK         0.4855 
      3 O          28.4729   -0.7018    0.7886 O.2       0 UNK        -0.5197 
      4 N          28.0381   -2.8898    0.4583 N.am      1 UNK        -0.4892 
      5 CA         27.8999   -2.8781   -1.0064 C.3       1 UNK         0.0835 
      6 C6         28.1998   -4.2820   -1.5994 C.3       12 UNK        -0.0855 
      7 S7         29.9136   -4.8140   -1.2435 S.3       12 UNK        -0.2931 
      8 C8         30.6136   -5.1050   -2.9092 C.3       12 UNK         0.0378 
      9 C9         30.5645   -3.9057   -3.8565 C.ar      12 UNK        -0.0802 
     10 C10        30.4004   -4.1286   -5.2274 C.ar      12 UNK        -0.0944 
     11 C11        30.3218   -3.0588   -6.1245 C.ar      12 UNK        -0.0787 
     12 C12        30.3974   -1.7507   -5.6368 C.ar      12 UNK        -0.0862 
     13 C13        30.5791   -1.5096   -4.2729 C.ar      12 UNK        -0.0733 
     14 C14        30.6872   -2.5908   -3.3933 C.ar      12 UNK        -0.0832 
     15 C15        30.6512   -0.0880   -3.7361 C.3       12 UNK         0.0240 
     16 S16        29.1489    0.3227   -2.7912 S.3       12 UNK        -0.2522 
     17 C17        28.2835    1.5073   -3.8725 C.3       12 UNK        -0.0967 
     18 CA         27.8469    0.9477   -5.2493 C.3       5 UNK         0.0660 
     19 N          27.1186   -0.3224   -5.1616 N.am      5 UNK        -0.4015 
     20 C          26.8765   -1.1348   -6.2024 C.2       4 UNK         0.4946 
     21 O          27.2454   -0.9060   -7.3529 O.2       4 UNK        -0.5353 
     22 CA         26.0246   -2.3865   -5.9297 C.3       4 UNK         0.0277 
     23 CB         26.8858   -3.5221   -5.3625 C.3       4 UNK        -0.1981 
     24 N          24.9134   -2.1065   -5.0199 N.am      4 UNK        -0.4209 
     25 C          23.8709   -1.3276   -5.3462 C.2       3 UNK         0.4942 
     26 O          23.7136   -0.8366   -6.4634 O.2       3 UNK        -0.5208 
     27 CA         22.8562   -0.9947   -4.2388 C.3       3 UNK         0.0250 
     28 CB         21.6722   -1.9730   -4.2841 C.3       3 UNK        -0.1990 
     29 N          23.4270   -0.9847   -2.8895 N.am      3 UNK        -0.4232 
     30 C          24.4451   -0.2157   -2.4778 C.2       2 UNK         0.4993 
     31 O          25.0277    0.5924   -3.2030 O.2       2 UNK        -0.5286 
     32 CA         24.9170   -0.3990   -1.0252 C.3       2 UNK         0.0209 
     33 CB         23.8713   -1.0730   -0.1081 C.3       2 UNK        -0.1931 
     34 N          26.1943   -1.1149   -0.9310 N.am      2 UNK        -0.4546 
     35 C          26.5256   -2.3112   -1.4412 C.2       1 UNK         0.5154 
     36 O          25.7919   -2.9619   -2.1895 O.2       1 UNK        -0.5181 
     37 C          27.0396    2.0124   -6.0156 C.2       5 UNK         0.5014 
     38 O          27.6313    2.8443   -6.7037 O.2       5 UNK        -0.5248 
     39 N          25.7047    1.9697   -5.8875 N.am      6 UNK        -0.4434 
     40 CA         24.7800    2.7970   -6.6639 C.3       6 UNK         0.0363 
     41 CB         23.3700    2.7099   -6.0588 C.3       6 UNK        -0.1936 
     42 C          24.7638    2.4149   -8.1555 C.2       6 UNK         0.5081 
     43 O          24.6461    3.3031   -9.0002 O.2       6 UNK        -0.5248 
     44 N          24.8891    1.1132   -8.4551 N.am      7 UNK        -0.4718 
     45 CA         24.9742    0.5797   -9.8157 C.3       7 UNK         0.0273 
     46 CB         24.7335   -0.9387   -9.8022 C.3       7 UNK        -0.1935 
     47 C          26.3031    0.9254  -10.5093 C.2       7 UNK         0.5018 
     48 O          26.2765    1.3417  -11.6688 O.2       7 UNK        -0.5186 
     49 N          27.4306    0.7697   -9.8023 N.am      8 UNK        -0.4240 
     50 CA         28.7624    1.1258  -10.2893 C.3       8 UNK         0.0235 
     51 CB         29.3613   -0.0387  -11.0989 C.3       8 UNK        -0.2000 
     52 C          29.6539    1.4933   -9.1000 C.2       8 UNK         0.4941 
     53 O          29.7920    0.6946   -8.1774 O.2       8 UNK        -0.5273 
     54 N          30.2660    2.6829   -9.1445 N.am      9 UNK        -0.4262 
     55 CA         31.1013    3.2154   -8.0611 C.3       9 UNK         0.0264 
     56 CB         31.1927    4.7436   -8.2127 C.3       9 UNK        -0.1955 
     57 C          32.5116    2.5967   -7.9801 C.2       9 UNK         0.5031 
     58 O          33.1920    2.8048   -6.9743 O.2       9 UNK        -0.5390 
     59 N          32.9406    1.8956   -9.0385 N.am      10 UNK        -0.4204 
     60 CA         34.2505    1.2558   -9.1609 C.3       10 UNK         0.0237 
     61 CB         34.6574    1.2307  -10.6497 C.3       10 UNK        -0.1985 
     62 C          34.2463   -0.1327   -8.4928 C.2       10 UNK         0.4970 
     63 O          34.3719   -0.2125   -7.2707 O.2       10 UNK        -0.4914 
     64 N          34.1284   -1.1923   -9.3057 N.am      11 UNK        -0.4285 
     65 CA         34.1050   -2.6135   -8.9046 C.3       11 UNK         0.1007 
     66 C          35.4592   -3.1625   -8.3589 C.2       11 UNK         0.5703 
     67 N          36.5786   -2.4738   -8.5500 N.am      11 UNK        -0.7361 
     68 O          35.5086   -4.2485   -7.7853 O.2       11 UNK        -0.4986 
     69 C69        32.9013   -2.9785   -7.9871 C.3       12 UNK        -0.0947 
     70 S70        31.3009   -2.4570   -8.6872 S.3       12 UNK        -0.2240 
     71 C71        30.1150   -3.3274   -7.6123 C.3       12 UNK         0.0194 
     72 H72        27.7295   -1.4993    3.2768 H         1 UNK         0.0906 
     73 H73        28.3142   -3.1388    2.9839 H         1 UNK         0.0906 
     74 H74        29.4575   -1.7975    3.0701 H         1 UNK         0.0906 
     75 H75        27.9186   -3.7964    0.8879 H         1 UNK         0.3140 
     76 H76        28.6429   -2.1890   -1.4085 H         1 UNK         0.1085 
     77 H77        28.0445   -4.2937   -2.6773 H         1 UNK         0.0836 
     78 H78        27.5116   -5.0253   -1.1928 H         1 UNK         0.0836 
     79 H79        30.0856   -5.9518   -3.3509 H         1 UNK         0.0731 
     80 H80        31.6535   -5.4149   -2.7991 H         1 UNK         0.0731 
     81 H81        30.3209   -5.1417   -5.5976 H         1 UNK         0.1312 
     82 H82        30.3166   -0.9235   -6.3271 H         1 UNK         0.1406 
     83 H83        30.8401   -2.4003   -2.3402 H         1 UNK         0.1631 
     84 H84        30.8072    0.6308   -4.5421 H         1 UNK         0.0717 
     85 H85        31.5160    0.0024   -3.0774 H         1 UNK         0.0717 
     86 H86        27.4163    1.8686   -3.3160 H         1 UNK         0.0934 
     87 H87        28.9317    2.3755   -4.0084 H         1 UNK         0.0934 
     88 H88        28.7490    0.7604   -5.8305 H         1 UNK         0.0739 
     89 H89        26.7216   -0.5403   -4.2584 H         1 UNK         0.3093 
     90 H90        25.6013   -2.7234   -6.8786 H         1 UNK         0.0818 
     91 H91        27.5036   -3.1750   -4.5350 H         1 UNK         0.0819 
     92 H92        26.2794   -4.3562   -5.0093 H         1 UNK         0.0819 
     93 H93        27.5565   -3.9122   -6.1272 H         1 UNK         0.0819 
     94 H94        24.9898   -2.4603   -4.0712 H         1 UNK         0.3041 
     95 H95        22.4774    0.0097   -4.4368 H         1 UNK         0.0784 
     96 H96        21.2119   -1.9824   -5.2733 H         1 UNK         0.0793 
     97 H97        21.9832   -2.9942   -4.0596 H         1 UNK         0.0793 
     98 H98        20.8965   -1.6923   -3.5713 H         1 UNK         0.0793 
     99 H99        23.0372   -1.6417   -2.2292 H         1 UNK         0.3024 
    100 H100       25.0940    0.6072   -0.6412 H         1 UNK         0.1171 
    101 H101       24.1986   -1.0523    0.9316 H         1 UNK         0.0786 
    102 H102       22.9135   -0.5521   -0.1485 H         1 UNK         0.0786 
    103 H103       23.6976   -2.1169   -0.3721 H         1 UNK         0.0786 
    104 H104       26.9048   -0.6709   -0.3540 H         1 UNK         0.2977 
    105 H105       25.3038    1.3049   -5.2356 H         1 UNK         0.3127 
    106 H106       25.1161    3.8336   -6.5895 H         1 UNK         0.0770 
    107 H107       22.9487    1.7096   -6.1545 H         1 UNK         0.0814 
    108 H108       22.6898    3.3957   -6.5655 H         1 UNK         0.0814 
    109 H109       23.3718    2.9757   -5.0015 H         1 UNK         0.0814 
    110 H110       24.9186    0.4392   -7.6985 H         1 UNK         0.2983 
    111 H111       24.1723    1.0363  -10.4003 H         1 UNK         0.0947 
    112 H112       24.7380   -1.3417  -10.8157 H         1 UNK         0.0806 
    113 H113       23.7675   -1.1828   -9.3595 H         1 UNK         0.0806 
    114 H114       25.5014   -1.4687   -9.2392 H         1 UNK         0.0806 
    115 H115       27.3923    0.3851   -8.8590 H         1 UNK         0.3000 
    116 H116       28.6827    1.9987  -10.9411 H         1 UNK         0.0850 
    117 H117       30.3795    0.1855  -11.4188 H         1 UNK         0.0810 
    118 H118       28.7756   -0.2420  -11.9953 H         1 UNK         0.0810 
    119 H119       29.3970   -0.9552  -10.5090 H         1 UNK         0.0810 
    120 H120       30.1110    3.2894   -9.9375 H         1 UNK         0.3040 
    121 H121       30.6038    3.0015   -7.1120 H         1 UNK         0.0766 
    122 H122       31.7740    5.1833   -7.4009 H         1 UNK         0.0812 
    123 H123       31.6732    5.0295   -9.1491 H         1 UNK         0.0812 
    124 H124       30.2048    5.2041   -8.1847 H         1 UNK         0.0812 
    125 H125       32.2933    1.7580   -9.7999 H         1 UNK         0.3205 
    126 H126       34.9916    1.8586   -8.6313 H         1 UNK         0.0754 
    127 H127       35.6169    0.7303  -10.7892 H         1 UNK         0.0769 
    128 H128       34.7716    2.2438  -11.0364 H         1 UNK         0.0769 
    129 H129       33.9209    0.7252  -11.2756 H         1 UNK         0.0769 
    130 H130       34.0501   -1.0249  -10.2976 H         1 UNK         0.2981 
    131 H131       33.9596   -3.1597   -9.8371 H         1 UNK         0.0541 
    132 H132       36.5598   -1.5886   -9.0294 H         1 UNK         0.3459 
    133 H133       37.4500   -2.8441   -8.2047 H         1 UNK         0.3459 
    134 H134       32.8574   -4.0567   -7.8243 H         1 UNK         0.0612 
    135 H135       33.0169   -2.5238   -7.0022 H         1 UNK         0.0612 
    136 H136       29.1079   -3.0133   -7.8889 H         1 UNK         0.0624 
    137 H137       30.1771   -4.3955   -7.8256 H         1 UNK         0.0624 
@<TRIPOS>BOND
     1    1    2 1    
     2    1   72 1    
     3    1   73 1    
     4    1   74 1    
     5    2    3 2    
     6    2    4 am   BACKBONE|DICT|INTERRES
     7    4    5 1    
     8    4   75 1    
     9    5    6 1    
    10    5   35 1    
    11    5   76 1    
    12    6    7 1    
    13    6   77 1    
    14    6   78 1    
    15    7    8 1    
    16    8    9 1    
    17    8   79 1    
    18    8   80 1    
    19    9   10 ar   
    20    9   14 ar   
    21   10   11 ar   
    22   10   81 1    
    23   11   12 ar   
    24   11   71 1    
    25   12   13 ar   
    26   12   82 1    
    27   13   14 ar   
    28   13   15 1    
    29   14   83 1    
    30   15   16 1    
    31   15   84 1    
    32   15   85 1    
    33   16   17 1    
    34   17   18 1    
    35   17   86 1    
    36   17   87 1    
    37   18   19 1    
    38   18   37 1    
    39   18   88 1    
    40   19   20 am   BACKBONE|DICT|INTERRES
    41   19   89 1    
    42   20   21 2    
    43   20   22 1    
    44   22   23 1    
    45   22   24 1    
    46   22   90 1    
    47   23   91 1    
    48   23   92 1    
    49   23   93 1    
    50   24   25 am   BACKBONE|DICT|INTERRES
    51   24   94 1    
    52   25   26 2    
    53   25   27 1    
    54   27   28 1    
    55   27   29 1    
    56   27   95 1    
    57   28   96 1    
    58   28   97 1    
    59   28   98 1    
    60   29   30 am   BACKBONE|DICT|INTERRES
    61   29   99 1    
    62   30   31 2    
    63   30   32 1    
    64   32   33 1    
    65   32   34 1    
    66   32  100 1    
    67   33  101 1    
    68   33  102 1    
    69   33  103 1    
    70   34   35 am   BACKBONE|DICT|INTERRES
    71   34  104 1    
    72   35   36 2    
    73   37   38 2    
    74   37   39 am   BACKBONE|DICT|INTERRES
    75   39   40 1    
    76   39  105 1    
    77   40   41 1    
    78   40   42 1    
    79   40  106 1    
    80   41  107 1    
    81   41  108 1    
    82   41  109 1    
    83   42   43 2    
    84   42   44 am   BACKBONE|DICT|INTERRES
    85   44   45 1    
    86   44  110 1    
    87   45   46 1    
    88   45   47 1    
    89   45  111 1    
    90   46  112 1    
    91   46  113 1    
    92   46  114 1    
    93   47   48 2    
    94   47   49 am   BACKBONE|DICT|INTERRES
    95   49   50 1    
    96   49  115 1    
    97   50   51 1    
    98   50   52 1    
    99   50  116 1    
   100   51  117 1    
   101   51  118 1    
   102   51  119 1    
   103   52   53 2    
   104   52   54 am   BACKBONE|DICT|INTERRES
   105   54   55 1    
   106   54  120 1    
   107   55   56 1    
   108   55   57 1    
   109   55  121 1    
   110   56  122 1    
   111   56  123 1    
   112   56  124 1    
   113   57   58 2    
   114   57   59 am   BACKBONE|DICT|INTERRES
   115   59   60 1    
   116   59  125 1    
   117   60   61 1    
   118   60   62 1    
   119   60  126 1    
   120   61  127 1    
   121   61  128 1    
   122   61  129 1    
   123   62   63 2    
   124   62   64 am   BACKBONE|DICT|INTERRES
   125   64   65 1    
   126   64  130 1    
   127   65   66 1    
   128   65   69 1    
   129   65  131 1    
   130   66   67 am   BACKBONE|DICT|INTERRES
   131   66   68 2    
   132   67  132 1    
   133   67  133 1    
   134   69   70 1    
   135   69  134 1    
   136   69  135 1    
   137   70   71 1    
   138   71  136 1    
   139   71  137 1    
@<TRIPOS>SUBSTRUCTURE
     1 UNK         1 GROUP             0       ****    0 ROOT    
