@<TRIPOS>MOLECULE
3R137
137   139    1
SMALL
USER_CHARGES


@<TRIPOS>ATOM
      1 CA         28.3430   -6.1438   -6.2067 C.3       0 UNK        -0.2020 
      2 C          28.1419   -5.5954   -4.8029 C.2       0 UNK         0.4855 
      3 O          27.0404   -5.6969   -4.2614 O.2       0 UNK        -0.5197 
      4 N          29.1909   -5.0105   -4.2086 N.am      1 UNK        -0.4892 
      5 CA         29.1751   -4.4307   -2.8601 C.3       1 UNK         0.0835 
      6 C6         30.5909   -3.9843   -2.4235 C.3       12 UNK        -0.0855 
      7 S7         30.6902   -3.5041   -0.6628 S.3       12 UNK        -0.2931 
      8 C8         31.8141   -2.0679   -0.7162 C.3       12 UNK         0.0378 
      9 C9         31.2439   -0.8999   -1.5120 C.ar      12 UNK        -0.0802 
     10 C10        31.7740   -0.5774   -2.7638 C.ar      12 UNK        -0.0944 
     11 C11        31.2520    0.4833   -3.5093 C.ar      12 UNK        -0.0787 
     12 C12        30.2179    1.2541   -2.9701 C.ar      12 UNK        -0.0862 
     13 C13        29.6825    0.9535   -1.7095 C.ar      12 UNK        -0.0733 
     14 C14        30.2009   -0.1297   -0.9912 C.ar      12 UNK        -0.0832 
     15 C15        28.5747    1.7929   -1.0714 C.3       12 UNK         0.0240 
     16 S16        27.4486    2.6255   -2.2427 S.3       12 UNK        -0.2522 
     17 C17        26.6601    1.2098   -3.0801 C.3       12 UNK        -0.0967 
     18 CA         26.8222    1.2598   -4.6204 C.3       5 UNK         0.0660 
     19 N          26.8192   -0.0918   -5.1957 N.am      5 UNK        -0.4015 
     20 C          26.9979   -0.4075   -6.4862 C.2       4 UNK         0.4946 
     21 O          27.2395    0.4231   -7.3611 O.2       4 UNK        -0.5353 
     22 CA         26.8141   -1.8778   -6.8918 C.3       4 UNK         0.0277 
     23 CB         28.1726   -2.5424   -7.1280 C.3       4 UNK        -0.1981 
     24 N          26.0425   -2.6534   -5.9174 N.am      4 UNK        -0.4209 
     25 C          24.7151   -2.5532   -5.7551 C.2       3 UNK         0.4942 
     26 O          23.9975   -1.8194   -6.4352 O.2       3 UNK        -0.5208 
     27 CA         24.0933   -3.3769   -4.6156 C.3       3 UNK         0.0250 
     28 CB         23.7841   -4.8085   -5.0817 C.3       3 UNK        -0.1990 
     29 N          24.9532   -3.4081   -3.4282 N.am      3 UNK        -0.4232 
     30 C          25.1214   -2.3577   -2.6093 C.2       2 UNK         0.4993 
     31 O          24.5196   -1.2928   -2.7419 O.2       2 UNK        -0.5286 
     32 CA         26.1451   -2.4895   -1.4663 C.3       2 UNK         0.0209 
     33 CB         25.4439   -2.9070   -0.1642 C.3       2 UNK        -0.1931 
     34 N          27.2451   -3.4172   -1.7410 N.am      2 UNK        -0.4546 
     35 C          28.1264   -3.3011   -2.7445 C.2       1 UNK         0.5154 
     36 O          28.1034   -2.3885   -3.5739 O.2       1 UNK        -0.5181 
     37 C          25.7967    2.2247   -5.2685 C.2       5 UNK         0.5014 
     38 O          25.9813    3.4394   -5.1909 O.2       5 UNK        -0.5248 
     39 N          24.7608    1.6855   -5.9320 N.am      6 UNK        -0.4434 
     40 CA         23.8291    2.4388   -6.7765 C.3       6 UNK         0.0363 
     41 CB         22.6885    1.5107   -7.2229 C.3       6 UNK        -0.1936 
     42 C          24.5056    3.0914   -8.0004 C.2       6 UNK         0.5081 
     43 O          24.0765    4.1674   -8.4180 O.2       6 UNK        -0.5248 
     44 N          25.5491    2.4455   -8.5401 N.am      7 UNK        -0.4718 
     45 CA         26.4196    2.9885   -9.5861 C.3       7 UNK         0.0273 
     46 CB         26.7876    1.8693  -10.5748 C.3       7 UNK        -0.1935 
     47 C          27.6917    3.6044   -8.9807 C.2       7 UNK         0.5018 
     48 O          28.1616    4.6258   -9.4826 O.2       7 UNK        -0.5186 
     49 N          28.2139    2.9706   -7.9187 N.am      8 UNK        -0.4240 
     50 CA         29.4198    3.3209   -7.1591 C.3       8 UNK         0.0235 
     51 CB         29.2540    4.6748   -6.4374 C.3       8 UNK        -0.2000 
     52 C          30.7114    3.2311   -7.9950 C.2       8 UNK         0.4941 
     53 O          31.6391    4.0151   -7.7849 O.2       8 UNK        -0.5273 
     54 N          30.7572    2.2606   -8.9133 N.am      9 UNK        -0.4262 
     55 CA         31.9058    1.9218   -9.7438 C.3       9 UNK         0.0264 
     56 CB         31.9099    2.7860  -11.0170 C.3       9 UNK        -0.1955 
     57 C          31.8070    0.4324  -10.0842 C.2       9 UNK         0.5031 
     58 O          30.6914   -0.0748  -10.2304 O.2       9 UNK        -0.5390 
     59 N          32.9690   -0.2287  -10.2042 N.am      10 UNK        -0.4204 
     60 CA         33.1451   -1.6639  -10.4815 C.3       10 UNK         0.0237 
     61 CB         32.7421   -1.9873  -11.9367 C.3       10 UNK        -0.1985 
     62 C          32.4398   -2.5685   -9.4477 C.2       10 UNK         0.4970 
     63 O          31.8143   -3.5636   -9.8186 O.2       10 UNK        -0.4914 
     64 N          32.5370   -2.1840   -8.1683 N.am      11 UNK        -0.4285 
     65 CA         31.8073   -2.7980   -7.0489 C.3       11 UNK         0.1007 
     66 C          32.2999   -4.2039   -6.6008 C.2       11 UNK         0.5703 
     67 N          33.4161   -4.7145   -7.1050 N.am      11 UNK        -0.7361 
     68 O          31.6477   -4.8418   -5.7762 O.2       11 UNK        -0.4986 
     69 C69        31.7100   -1.8452   -5.8310 C.3       12 UNK        -0.0947 
     70 S70        31.0310   -0.1925   -6.1988 S.3       12 UNK        -0.2240 
     71 C71        31.8151    0.8049   -4.8888 C.3       12 UNK         0.0194 
     72 H72        27.5058   -5.8623   -6.8447 H         1 UNK         0.0906 
     73 H73        29.2580   -5.7685   -6.6638 H         1 UNK         0.0906 
     74 H74        28.3963   -7.2316   -6.1781 H         1 UNK         0.0906 
     75 H75        30.0735   -4.9458   -4.7115 H         1 UNK         0.3140 
     76 H76        28.8717   -5.2399   -2.1921 H         1 UNK         0.1085 
     77 H77        30.9351   -3.1677   -3.0531 H         1 UNK         0.0836 
     78 H78        31.3008   -4.7981   -2.5811 H         1 UNK         0.0836 
     79 H79        32.7747   -2.3839   -1.1264 H         1 UNK         0.0731 
     80 H80        32.0147   -1.7407    0.3050 H         1 UNK         0.0731 
     81 H81        32.5892   -1.1635   -3.1629 H         1 UNK         0.1312 
     82 H82        29.8368    2.0915   -3.5365 H         1 UNK         0.1406 
     83 H83        29.7988   -0.3738   -0.0170 H         1 UNK         0.1631 
     84 H84        29.0412    2.5543   -0.4452 H         1 UNK         0.0717 
     85 H85        27.9718    1.1736   -0.4051 H         1 UNK         0.0717 
     86 H86        27.1169    0.2984   -2.6939 H         1 UNK         0.0934 
     87 H87        25.6095    1.1597   -2.7874 H         1 UNK         0.0934 
     88 H88        27.8102    1.6626   -4.8490 H         1 UNK         0.0739 
     89 H89        26.7084   -0.8567   -4.5431 H         1 UNK         0.3093 
     90 H90        26.2712   -1.8811   -7.8396 H         1 UNK         0.0818 
     91 H91        28.0604   -3.5401   -7.5498 H         1 UNK         0.0819 
     92 H92        28.7635   -1.9589   -7.8363 H         1 UNK         0.0819 
     93 H93        28.7464   -2.6209   -6.2041 H         1 UNK         0.0819 
     94 H94        26.5661   -3.2394   -5.2811 H         1 UNK         0.3041 
     95 H95        23.1478   -2.9031   -4.3415 H         1 UNK         0.0784 
     96 H96        23.0920   -4.8001   -5.9249 H         1 UNK         0.0793 
     97 H97        24.6815   -5.3360   -5.4055 H         1 UNK         0.0793 
     98 H98        23.3191   -5.3930   -4.2876 H         1 UNK         0.0793 
     99 H99        25.5058   -4.2443   -3.2804 H         1 UNK         0.3024 
    100 H100       26.5852   -1.5029   -1.3106 H         1 UNK         0.1171 
    101 H101       26.1360   -2.9059    0.6782 H         1 UNK         0.0786 
    102 H102       24.6362   -2.2162    0.0830 H         1 UNK         0.0786 
    103 H103       25.0078   -3.9038   -0.2414 H         1 UNK         0.0786 
    104 H104       27.3338   -4.2017   -1.1111 H         1 UNK         0.2977 
    105 H105       24.6628    0.6791   -5.9380 H         1 UNK         0.3127 
    106 H106       23.4026    3.2403   -6.1697 H         1 UNK         0.0770 
    107 H107       23.0584    0.6715   -7.8138 H         1 UNK         0.0814 
    108 H108       21.9650    2.0489   -7.8369 H         1 UNK         0.0814 
    109 H109       22.1483    1.1047   -6.3674 H         1 UNK         0.0814 
    110 H110       25.8619    1.5812   -8.1089 H         1 UNK         0.2983 
    111 H111       25.8981    3.7729  -10.1394 H         1 UNK         0.0947 
    112 H112       27.3178    1.0506  -10.0859 H         1 UNK         0.0806 
    113 H113       27.4339    2.2473  -11.3682 H         1 UNK         0.0806 
    114 H114       25.8988    1.4548  -11.0507 H         1 UNK         0.0806 
    115 H115       27.7805    2.0878   -7.6500 H         1 UNK         0.3000 
    116 H116       29.5150    2.5544   -6.3894 H         1 UNK         0.0850 
    117 H117       28.3451    4.6948   -5.8364 H         1 UNK         0.0810 
    118 H118       29.2102    5.5063   -7.1412 H         1 UNK         0.0810 
    119 H119       30.0900    4.8632   -5.7629 H         1 UNK         0.0810 
    120 H120       29.9802    1.6164   -9.0028 H         1 UNK         0.3040 
    121 H121       32.8238    2.0954   -9.1779 H         1 UNK         0.0766 
    122 H122       32.7565    2.5367  -11.6579 H         1 UNK         0.0812 
    123 H123       31.9861    3.8465  -10.7760 H         1 UNK         0.0812 
    124 H124       31.0009    2.6414  -11.6026 H         1 UNK         0.0812 
    125 H125       33.8250    0.2926  -10.0685 H         1 UNK         0.3205 
    126 H126       34.2120   -1.8697  -10.3835 H         1 UNK         0.0754 
    127 H127       32.9772   -3.0223  -12.1883 H         1 UNK         0.0769 
    128 H128       33.2752   -1.3541  -12.6460 H         1 UNK         0.0769 
    129 H129       31.6730   -1.8473  -12.1009 H         1 UNK         0.0769 
    130 H130       33.0690   -1.3567   -7.9460 H         1 UNK         0.2981 
    131 H131       30.7958   -2.9697   -7.4098 H         1 UNK         0.0541 
    132 H132       33.7188   -5.6274   -6.8049 H         1 UNK         0.3459 
    133 H133       33.9525   -4.2014   -7.7854 H         1 UNK         0.3459 
    134 H134       31.0628   -2.2789   -5.0698 H         1 UNK         0.0612 
    135 H135       32.6976   -1.7308   -5.3824 H         1 UNK         0.0612 
    136 H136       32.8944    0.6468   -4.9033 H         1 UNK         0.0624 
    137 H137       31.6629    1.8608   -5.1168 H         1 UNK         0.0624 
@<TRIPOS>BOND
     1    1    2 1    
     2    1   72 1    
     3    1   73 1    
     4    1   74 1    
     5    2    3 2    
     6    2    4 am   BACKBONE|DICT|INTERRES
     7    4    5 1    
     8    4   75 1    
     9    5    6 1    
    10    5   35 1    
    11    5   76 1    
    12    6    7 1    
    13    6   77 1    
    14    6   78 1    
    15    7    8 1    
    16    8    9 1    
    17    8   79 1    
    18    8   80 1    
    19    9   10 ar   
    20    9   14 ar   
    21   10   11 ar   
    22   10   81 1    
    23   11   12 ar   
    24   11   71 1    
    25   12   13 ar   
    26   12   82 1    
    27   13   14 ar   
    28   13   15 1    
    29   14   83 1    
    30   15   16 1    
    31   15   84 1    
    32   15   85 1    
    33   16   17 1    
    34   17   18 1    
    35   17   86 1    
    36   17   87 1    
    37   18   19 1    
    38   18   37 1    
    39   18   88 1    
    40   19   20 am   BACKBONE|DICT|INTERRES
    41   19   89 1    
    42   20   21 2    
    43   20   22 1    
    44   22   23 1    
    45   22   24 1    
    46   22   90 1    
    47   23   91 1    
    48   23   92 1    
    49   23   93 1    
    50   24   25 am   BACKBONE|DICT|INTERRES
    51   24   94 1    
    52   25   26 2    
    53   25   27 1    
    54   27   28 1    
    55   27   29 1    
    56   27   95 1    
    57   28   96 1    
    58   28   97 1    
    59   28   98 1    
    60   29   30 am   BACKBONE|DICT|INTERRES
    61   29   99 1    
    62   30   31 2    
    63   30   32 1    
    64   32   33 1    
    65   32   34 1    
    66   32  100 1    
    67   33  101 1    
    68   33  102 1    
    69   33  103 1    
    70   34   35 am   BACKBONE|DICT|INTERRES
    71   34  104 1    
    72   35   36 2    
    73   37   38 2    
    74   37   39 am   BACKBONE|DICT|INTERRES
    75   39   40 1    
    76   39  105 1    
    77   40   41 1    
    78   40   42 1    
    79   40  106 1    
    80   41  107 1    
    81   41  108 1    
    82   41  109 1    
    83   42   43 2    
    84   42   44 am   BACKBONE|DICT|INTERRES
    85   44   45 1    
    86   44  110 1    
    87   45   46 1    
    88   45   47 1    
    89   45  111 1    
    90   46  112 1    
    91   46  113 1    
    92   46  114 1    
    93   47   48 2    
    94   47   49 am   BACKBONE|DICT|INTERRES
    95   49   50 1    
    96   49  115 1    
    97   50   51 1    
    98   50   52 1    
    99   50  116 1    
   100   51  117 1    
   101   51  118 1    
   102   51  119 1    
   103   52   53 2    
   104   52   54 am   BACKBONE|DICT|INTERRES
   105   54   55 1    
   106   54  120 1    
   107   55   56 1    
   108   55   57 1    
   109   55  121 1    
   110   56  122 1    
   111   56  123 1    
   112   56  124 1    
   113   57   58 2    
   114   57   59 am   BACKBONE|DICT|INTERRES
   115   59   60 1    
   116   59  125 1    
   117   60   61 1    
   118   60   62 1    
   119   60  126 1    
   120   61  127 1    
   121   61  128 1    
   122   61  129 1    
   123   62   63 2    
   124   62   64 am   BACKBONE|DICT|INTERRES
   125   64   65 1    
   126   64  130 1    
   127   65   66 1    
   128   65   69 1    
   129   65  131 1    
   130   66   67 am   BACKBONE|DICT|INTERRES
   131   66   68 2    
   132   67  132 1    
   133   67  133 1    
   134   69   70 1    
   135   69  134 1    
   136   69  135 1    
   137   70   71 1    
   138   71  136 1    
   139   71  137 1    
@<TRIPOS>SUBSTRUCTURE
     1 UNK         1 GROUP             0       ****    0 ROOT    
