@<TRIPOS>MOLECULE
3R137
137   139    1
SMALL
USER_CHARGES


@<TRIPOS>ATOM
      1 CA         25.8450   -2.8299   -0.3538 C.3       0 UNK        -0.2020 
      2 C          26.0034   -4.3278   -0.6068 C.2       0 UNK         0.4855 
      3 O          25.7166   -5.1196    0.2881 O.2       0 UNK        -0.5197 
      4 N          26.4589   -4.7735   -1.7865 N.am      1 UNK        -0.4892 
      5 CA         26.8168   -3.9716   -2.9662 C.3       1 UNK         0.0835 
      6 C6         27.8320   -4.6994   -3.8873 C.3       12 UNK        -0.0855 
      7 S7         29.2666   -5.3950   -2.9889 S.3       12 UNK        -0.2931 
      8 C8         30.6888   -4.5370   -3.7522 C.3       12 UNK         0.0378 
      9 C9         30.9648   -3.1103   -3.2703 C.ar      12 UNK        -0.0802 
     10 C10        32.0500   -2.4293   -3.8327 C.ar      12 UNK        -0.0944 
     11 C11        32.3613   -1.1247   -3.4407 C.ar      12 UNK        -0.0787 
     12 C12        31.5659   -0.4865   -2.4865 C.ar      12 UNK        -0.0862 
     13 C13        30.4735   -1.1469   -1.9169 C.ar      12 UNK        -0.0733 
     14 C14        30.1941   -2.4634   -2.2934 C.ar      12 UNK        -0.0832 
     15 C15        29.5909   -0.4336   -0.8993 C.3       12 UNK         0.0240 
     16 S16        27.9515    0.0018   -1.5768 S.3       12 UNK        -0.2522 
     17 C17        28.3885    0.9657   -3.0635 C.3       12 UNK        -0.0967 
     18 CA         28.0355    0.1652   -4.3490 C.3       5 UNK         0.0660 
     19 N          26.5914    0.0951   -4.5962 N.am      5 UNK        -0.4015 
     20 C          25.8035    1.1031   -5.0046 C.2       4 UNK         0.4946 
     21 O          26.2009    2.2535   -5.1982 O.2       4 UNK        -0.5353 
     22 CA         24.3248    0.7796   -5.2475 C.3       4 UNK         0.0277 
     23 CB         24.1392    0.1375   -6.6320 C.3       4 UNK        -0.1981 
     24 N          23.8049   -0.1363   -4.2341 N.am      4 UNK        -0.4209 
     25 C          22.8449    0.1457   -3.3428 C.2       3 UNK         0.4942 
     26 O          22.3254    1.2575   -3.2315 O.2       3 UNK        -0.5208 
     27 CA         22.3844   -1.0008   -2.4112 C.3       3 UNK         0.0250 
     28 CB         20.8712   -0.9425   -2.1120 C.3       3 UNK        -0.1990 
     29 N          22.7757   -2.3418   -2.8730 N.am      3 UNK        -0.4232 
     30 C          22.4411   -2.9457   -4.0256 C.2       2 UNK         0.4993 
     31 O          21.6139   -2.4967   -4.8198 O.2       2 UNK        -0.5286 
     32 CA         23.2002   -4.2456   -4.3694 C.3       2 UNK         0.0209 
     33 CB         23.3774   -4.4238   -5.8933 C.3       2 UNK        -0.1931 
     34 N          24.5014   -4.3865   -3.6914 N.am      2 UNK        -0.4546 
     35 C          25.5644   -3.5669   -3.7706 C.2       1 UNK         0.5154 
     36 O          25.5654   -2.5042   -4.3941 O.2       1 UNK        -0.5181 
     37 C          28.7579    0.6256   -5.6303 C.2       5 UNK         0.5014 
     38 O          28.6249   -0.0507   -6.6527 O.2       5 UNK        -0.5248 
     39 N          29.4642    1.7644   -5.5894 N.am      6 UNK        -0.4434 
     40 CA         30.2308    2.3205   -6.7081 C.3       6 UNK         0.0363 
     41 CB         30.9886    3.5727   -6.2420 C.3       6 UNK        -0.1936 
     42 C          29.4135    2.6160   -7.9748 C.2       6 UNK         0.5081 
     43 O          29.9801    2.5581   -9.0653 O.2       6 UNK        -0.5248 
     44 N          28.1045    2.8664   -7.8292 N.am      7 UNK        -0.4718 
     45 CA         27.1771    3.0491   -8.9494 C.3       7 UNK         0.0273 
     46 CB         25.8507    3.6224   -8.4253 C.3       7 UNK        -0.1935 
     47 C          26.9371    1.7686   -9.7748 C.2       7 UNK         0.5018 
     48 O          26.5131    1.8809  -10.9258 O.2       7 UNK        -0.5186 
     49 N          27.2128    0.5923   -9.1925 N.am      8 UNK        -0.4240 
     50 CA         27.1359   -0.7075   -9.8616 C.3       8 UNK         0.0235 
     51 CB         26.2410   -1.6544   -9.0441 C.3       8 UNK        -0.2000 
     52 C          28.5297   -1.3221  -10.0523 C.2       8 UNK         0.4941 
     53 O          28.8232   -1.8250  -11.1372 O.2       8 UNK        -0.5273 
     54 N          29.3551   -1.2941   -8.9975 N.am      9 UNK        -0.4262 
     55 CA         30.6547   -1.9647   -8.9398 C.3       9 UNK         0.0264 
     56 CB         31.0081   -2.2356   -7.4676 C.3       9 UNK        -0.1955 
     57 C          31.7949   -1.2119   -9.6478 C.2       9 UNK         0.5031 
     58 O          32.8037   -1.8488   -9.9549 O.2       9 UNK        -0.5390 
     59 N          31.6328    0.1006   -9.8920 N.am      10 UNK        -0.4204 
     60 CA         32.6067    1.0066  -10.5223 C.3       10 UNK         0.0237 
     61 CB         32.7803    0.6660  -12.0182 C.3       10 UNK        -0.1985 
     62 C          33.9424    1.0555   -9.7526 C.2       10 UNK         0.4970 
     63 O          35.0008    0.7771  -10.3196 O.2       10 UNK        -0.4914 
     64 N          33.8490    1.3774   -8.4564 N.am      11 UNK        -0.4285 
     65 CA         34.9540    1.3469   -7.4807 C.3       11 UNK         0.1007 
     66 C          36.0985    2.3730   -7.7292 C.2       11 UNK         0.5703 
     67 N          35.9044    3.4035   -8.5439 N.am      11 UNK        -0.7361 
     68 O          37.1833    2.2282   -7.1705 O.2       11 UNK        -0.4986 
     69 C69        34.4348    1.4643   -6.0210 C.3       12 UNK        -0.0947 
     70 S70        33.0623    0.3220   -5.6540 S.3       12 UNK        -0.2240 
     71 C71        33.5435   -0.3964   -4.0615 C.3       12 UNK         0.0194 
     72 H72        25.4789   -2.2852   -1.2213 H         1 UNK         0.0906 
     73 H73        25.1386   -2.6576    0.4581 H         1 UNK         0.0906 
     74 H74        26.8015   -2.4020   -0.0556 H         1 UNK         0.0906 
     75 H75        26.6076   -5.7679   -1.8911 H         1 UNK         0.3140 
     76 H76        27.2821   -3.0437   -2.6320 H         1 UNK         0.1085 
     77 H77        27.3502   -5.5275   -4.4116 H         1 UNK         0.0836 
     78 H78        28.1854   -4.0184   -4.6645 H         1 UNK         0.0836 
     79 H79        31.5778   -5.1371   -3.5525 H         1 UNK         0.0731 
     80 H80        30.5623   -4.5347   -4.8359 H         1 UNK         0.0731 
     81 H81        32.6575   -2.9155   -4.5842 H         1 UNK         0.1312 
     82 H82        31.7940    0.5296   -2.1946 H         1 UNK         0.1406 
     83 H83        29.3673   -2.9686   -1.8191 H         1 UNK         0.1631 
     84 H84        30.0758    0.4740   -0.5363 H         1 UNK         0.0717 
     85 H85        29.4536   -1.0743   -0.0270 H         1 UNK         0.0717 
     86 H86        27.8587    1.9193   -3.0322 H         1 UNK         0.0934 
     87 H87        29.4491    1.2112   -3.0138 H         1 UNK         0.0934 
     88 H88        28.3696   -0.8640   -4.2062 H         1 UNK         0.0739 
     89 H89        26.1912   -0.8378   -4.5286 H         1 UNK         0.3093 
     90 H90        23.7758    1.7235   -5.2316 H         1 UNK         0.0818 
     91 H91        23.0823    0.0051   -6.8643 H         1 UNK         0.0819 
     92 H92        24.5706    0.7536   -7.4211 H         1 UNK         0.0819 
     93 H93        24.6133   -0.8430   -6.6839 H         1 UNK         0.0819 
     94 H94        24.1919   -1.0738   -4.2412 H         1 UNK         0.3041 
     95 H95        22.9105   -0.8428   -1.4685 H         1 UNK         0.0784 
     96 H96        20.6030   -0.0041   -1.6249 H         1 UNK         0.0793 
     97 H97        20.2750   -1.0162   -3.0219 H         1 UNK         0.0793 
     98 H98        20.5669   -1.7490   -1.4450 H         1 UNK         0.0793 
     99 H99        23.4416   -2.8232   -2.2872 H         1 UNK         0.3024 
    100 H100       22.5704   -5.0615   -4.0103 H         1 UNK         0.1171 
    101 H101       23.9034   -5.3496   -6.1264 H         1 UNK         0.0786 
    102 H102       23.9384   -3.5991   -6.3349 H         1 UNK         0.0786 
    103 H103       22.4125   -4.4675   -6.4001 H         1 UNK         0.0786 
    104 H104       24.6010   -5.2100   -3.1124 H         1 UNK         0.2977 
    105 H105       29.4806    2.2917   -4.7292 H         1 UNK         0.3127 
    106 H106       30.9600    1.5655   -6.9984 H         1 UNK         0.0770 
    107 H107       30.3062    4.3584   -5.9157 H         1 UNK         0.0814 
    108 H108       31.5981    3.9842   -7.0479 H         1 UNK         0.0814 
    109 H109       31.6612    3.3450   -5.4148 H         1 UNK         0.0814 
    110 H110       27.7051    2.8624   -6.8978 H         1 UNK         0.2983 
    111 H111       27.6160    3.7839   -9.6283 H         1 UNK         0.0947 
    112 H112       25.1457    3.7877   -9.2413 H         1 UNK         0.0806 
    113 H113       26.0023    4.5819   -7.9308 H         1 UNK         0.0806 
    114 H114       25.3721    2.9526   -7.7120 H         1 UNK         0.0806 
    115 H115       27.5855    0.5949   -8.2487 H         1 UNK         0.3000 
    116 H116       26.6908   -0.6031  -10.8535 H         1 UNK         0.0850 
    117 H117       26.2224   -2.6529   -9.4832 H         1 UNK         0.0810 
    118 H118       25.2122   -1.2963   -9.0217 H         1 UNK         0.0810 
    119 H119       26.5873   -1.7562   -8.0144 H         1 UNK         0.0810 
    120 H120       29.0364   -0.8654   -8.1281 H         1 UNK         0.3040 
    121 H121       30.5602   -2.9319   -9.4384 H         1 UNK         0.0766 
    122 H122       31.9837   -2.7146   -7.3746 H         1 UNK         0.0812 
    123 H123       30.2769   -2.8947   -6.9996 H         1 UNK         0.0812 
    124 H124       31.0396   -1.3147   -6.8871 H         1 UNK         0.0812 
    125 H125       30.7678    0.5390   -9.5994 H         1 UNK         0.3205 
    126 H126       32.1838    2.0104  -10.4668 H         1 UNK         0.0754 
    127 H127       33.4303    1.3906  -12.5102 H         1 UNK         0.0769 
    128 H128       31.8236    0.6818  -12.5404 H         1 UNK         0.0769 
    129 H129       33.2243   -0.3195  -12.1636 H         1 UNK         0.0769 
    130 H130       32.9395    1.5798   -8.0732 H         1 UNK         0.2981 
    131 H131       35.4153    0.3624   -7.5790 H         1 UNK         0.0541 
    132 H132       35.0209    3.5269   -9.0107 H         1 UNK         0.3459 
    133 H133       36.6543    4.0586   -8.6985 H         1 UNK         0.3459 
    134 H134       34.0825    2.4780   -5.8219 H         1 UNK         0.0612 
    135 H135       35.2482    1.2794   -5.3169 H         1 UNK         0.0612 
    136 H136       34.3796   -1.0818   -4.2076 H         1 UNK         0.0624 
    137 H137       33.8947    0.3932   -3.3952 H         1 UNK         0.0624 
@<TRIPOS>BOND
     1    1    2 1    
     2    1   72 1    
     3    1   73 1    
     4    1   74 1    
     5    2    3 2    
     6    2    4 am   BACKBONE|DICT|INTERRES
     7    4    5 1    
     8    4   75 1    
     9    5    6 1    
    10    5   35 1    
    11    5   76 1    
    12    6    7 1    
    13    6   77 1    
    14    6   78 1    
    15    7    8 1    
    16    8    9 1    
    17    8   79 1    
    18    8   80 1    
    19    9   10 ar   
    20    9   14 ar   
    21   10   11 ar   
    22   10   81 1    
    23   11   12 ar   
    24   11   71 1    
    25   12   13 ar   
    26   12   82 1    
    27   13   14 ar   
    28   13   15 1    
    29   14   83 1    
    30   15   16 1    
    31   15   84 1    
    32   15   85 1    
    33   16   17 1    
    34   17   18 1    
    35   17   86 1    
    36   17   87 1    
    37   18   19 1    
    38   18   37 1    
    39   18   88 1    
    40   19   20 am   BACKBONE|DICT|INTERRES
    41   19   89 1    
    42   20   21 2    
    43   20   22 1    
    44   22   23 1    
    45   22   24 1    
    46   22   90 1    
    47   23   91 1    
    48   23   92 1    
    49   23   93 1    
    50   24   25 am   BACKBONE|DICT|INTERRES
    51   24   94 1    
    52   25   26 2    
    53   25   27 1    
    54   27   28 1    
    55   27   29 1    
    56   27   95 1    
    57   28   96 1    
    58   28   97 1    
    59   28   98 1    
    60   29   30 am   BACKBONE|DICT|INTERRES
    61   29   99 1    
    62   30   31 2    
    63   30   32 1    
    64   32   33 1    
    65   32   34 1    
    66   32  100 1    
    67   33  101 1    
    68   33  102 1    
    69   33  103 1    
    70   34   35 am   BACKBONE|DICT|INTERRES
    71   34  104 1    
    72   35   36 2    
    73   37   38 2    
    74   37   39 am   BACKBONE|DICT|INTERRES
    75   39   40 1    
    76   39  105 1    
    77   40   41 1    
    78   40   42 1    
    79   40  106 1    
    80   41  107 1    
    81   41  108 1    
    82   41  109 1    
    83   42   43 2    
    84   42   44 am   BACKBONE|DICT|INTERRES
    85   44   45 1    
    86   44  110 1    
    87   45   46 1    
    88   45   47 1    
    89   45  111 1    
    90   46  112 1    
    91   46  113 1    
    92   46  114 1    
    93   47   48 2    
    94   47   49 am   BACKBONE|DICT|INTERRES
    95   49   50 1    
    96   49  115 1    
    97   50   51 1    
    98   50   52 1    
    99   50  116 1    
   100   51  117 1    
   101   51  118 1    
   102   51  119 1    
   103   52   53 2    
   104   52   54 am   BACKBONE|DICT|INTERRES
   105   54   55 1    
   106   54  120 1    
   107   55   56 1    
   108   55   57 1    
   109   55  121 1    
   110   56  122 1    
   111   56  123 1    
   112   56  124 1    
   113   57   58 2    
   114   57   59 am   BACKBONE|DICT|INTERRES
   115   59   60 1    
   116   59  125 1    
   117   60   61 1    
   118   60   62 1    
   119   60  126 1    
   120   61  127 1    
   121   61  128 1    
   122   61  129 1    
   123   62   63 2    
   124   62   64 am   BACKBONE|DICT|INTERRES
   125   64   65 1    
   126   64  130 1    
   127   65   66 1    
   128   65   69 1    
   129   65  131 1    
   130   66   67 am   BACKBONE|DICT|INTERRES
   131   66   68 2    
   132   67  132 1    
   133   67  133 1    
   134   69   70 1    
   135   69  134 1    
   136   69  135 1    
   137   70   71 1    
   138   71  136 1    
   139   71  137 1    
@<TRIPOS>SUBSTRUCTURE
     1 UNK         1 GROUP             0       ****    0 ROOT    
