@<TRIPOS>MOLECULE
3R137
137   139    1
SMALL
USER_CHARGES


@<TRIPOS>ATOM
      1 CA         27.9984   -3.5702    2.7677 C.3       0 UNK        -0.2020 
      2 C          28.2936   -2.8075    1.4856 C.2       0 UNK         0.4855 
      3 O          28.6210   -1.6224    1.5376 O.2       0 UNK        -0.5197 
      4 N          28.1604   -3.4677    0.3291 N.am      1 UNK        -0.4892 
      5 CA         28.4463   -2.9390   -1.0131 C.3       1 UNK         0.0835 
      6 C6         28.7482   -4.0887   -2.0109 C.3       12 UNK        -0.0855 
      7 S7         30.3478   -4.9192   -1.7102 S.3       12 UNK        -0.2931 
      8 C8         31.5980   -3.7491   -2.3685 C.3       12 UNK         0.0378 
      9 C9         31.1328   -2.9588   -3.5874 C.ar      12 UNK        -0.0802 
     10 C10        30.8861   -3.6026   -4.8035 C.ar      12 UNK        -0.0944 
     11 C11        30.3892   -2.8882   -5.8995 C.ar      12 UNK        -0.0787 
     12 C12        30.1498   -1.5160   -5.7748 C.ar      12 UNK        -0.0862 
     13 C13        30.4103   -0.8571   -4.5685 C.ar      12 UNK        -0.0733 
     14 C14        30.9086   -1.5833   -3.4836 C.ar      12 UNK        -0.0832 
     15 C15        30.1535    0.6357   -4.4146 C.3       12 UNK         0.0240 
     16 S16        28.6780    0.9411   -3.3933 S.3       12 UNK        -0.2522 
     17 C17        27.5025    1.6999   -4.5613 C.3       12 UNK        -0.0967 
     18 CA         27.1400    0.8325   -5.7924 C.3       5 UNK         0.0660 
     19 N          26.6395   -0.5061   -5.4390 N.am      5 UNK        -0.4015 
     20 C          26.3985   -1.4983   -6.3134 C.2       4 UNK         0.4946 
     21 O          26.6163   -1.4014   -7.5217 O.2       4 UNK        -0.5353 
     22 CA         25.7446   -2.7836   -5.7812 C.3       4 UNK         0.0277 
     23 CB         26.7936   -3.8865   -5.5807 C.3       4 UNK        -0.1981 
     24 N          25.0282   -2.5580   -4.5246 N.am      4 UNK        -0.4209 
     25 C          23.7537   -2.1543   -4.4327 C.2       3 UNK         0.4942 
     26 O          23.0352   -1.9408   -5.4095 O.2       3 UNK        -0.5208 
     27 CA         23.1768   -1.9509   -3.0184 C.3       3 UNK         0.0250 
     28 CB         22.5105   -3.2440   -2.5216 C.3       3 UNK        -0.1990 
     29 N          24.1722   -1.5122   -2.0358 N.am      3 UNK        -0.4232 
     30 C          24.7417   -0.2992   -2.0273 C.2       2 UNK         0.4993 
     31 O          24.4528    0.5956   -2.8223 O.2       2 UNK        -0.5286 
     32 CA         25.8406   -0.0442   -0.9777 C.3       2 UNK         0.0209 
     33 CB         25.2178    0.4670    0.3314 C.3       2 UNK        -0.1931 
     34 N          26.7376   -1.1715   -0.6740 N.am      2 UNK        -0.4546 
     35 C          27.3588   -1.9735   -1.5516 C.2       1 UNK         0.5154 
     36 O          27.1013   -1.9655   -2.7548 O.2       1 UNK        -0.5181 
     37 C          26.2063    1.6225   -6.7383 C.2       5 UNK         0.5014 
     38 O          26.6521    2.6083   -7.3274 O.2       5 UNK        -0.5248 
     39 N          24.9630    1.1535   -6.9340 N.am      6 UNK        -0.4434 
     40 CA         24.0294    1.5869   -7.9801 C.3       6 UNK         0.0363 
     41 CB         22.7177    0.7995   -7.8313 C.3       6 UNK        -0.1936 
     42 C          24.5807    1.4513   -9.4176 C.2       6 UNK         0.5081 
     43 O          24.0708    2.1177  -10.3182 O.2       6 UNK        -0.5248 
     44 N          25.6353    0.6407   -9.6056 N.am      7 UNK        -0.4718 
     45 CA         26.4579    0.5773  -10.8188 C.3       7 UNK         0.0273 
     46 CB         27.4107   -0.6249  -10.7024 C.3       7 UNK        -0.1935 
     47 C          27.2608    1.8654  -11.1124 C.2       7 UNK         0.5018 
     48 O          27.7869    1.9902  -12.2189 O.2       7 UNK        -0.5186 
     49 N          27.3468    2.7851  -10.1362 N.am      8 UNK        -0.4240 
     50 CA         28.0278    4.0855  -10.1784 C.3       8 UNK         0.0235 
     51 CB         27.4307    5.0025  -11.2685 C.3       8 UNK        -0.2000 
     52 C          29.5627    3.9728  -10.2511 C.2       8 UNK         0.4941 
     53 O          30.2187    4.8464  -10.8226 O.2       8 UNK        -0.5273 
     54 N          30.1115    2.9167   -9.6429 N.am      9 UNK        -0.4262 
     55 CA         31.5374    2.6547   -9.4886 C.3       9 UNK         0.0264 
     56 CB         32.1066    2.0359  -10.7792 C.3       9 UNK        -0.1955 
     57 C          31.7088    1.6997   -8.3039 C.2       9 UNK         0.5031 
     58 O          30.7840    0.9388   -8.0063 O.2       9 UNK        -0.5390 
     59 N          32.8845    1.7414   -7.6669 N.am      10 UNK        -0.4204 
     60 CA         33.2920    0.7881   -6.6362 C.3       10 UNK         0.0237 
     61 CB         34.2244    1.4792   -5.6274 C.3       10 UNK        -0.1985 
     62 C          33.9846   -0.3987   -7.3153 C.2       10 UNK         0.4970 
     63 O          34.9770   -0.1928   -8.0184 O.2       10 UNK        -0.4914 
     64 N          33.4363   -1.6012   -7.1233 N.am      11 UNK        -0.4285 
     65 CA         33.9210   -2.8392   -7.7490 C.3       11 UNK         0.1007 
     66 C          35.2292   -3.3677   -7.1009 C.2       11 UNK         0.5703 
     67 N          36.0303   -4.1158   -7.8477 N.am      11 UNK        -0.7361 
     68 O          35.5093   -3.1378   -5.9254 O.2       11 UNK        -0.4986 
     69 C69        32.8257   -3.9363   -7.7826 C.3       12 UNK        -0.0947 
     70 S70        31.2690   -3.3319   -8.5241 S.3       12 UNK        -0.2240 
     71 C71        30.0545   -3.6140   -7.1972 C.3       12 UNK         0.0194 
     72 H72        27.1843   -3.0910    3.3109 H         1 UNK         0.0906 
     73 H73        27.7137   -4.6038    2.5717 H         1 UNK         0.0906 
     74 H74        28.8786   -3.5776    3.4098 H         1 UNK         0.0906 
     75 H75        27.8734   -4.4362    0.3524 H         1 UNK         0.3140 
     76 H76        29.3452   -2.3234   -0.9422 H         1 UNK         0.1085 
     77 H77        28.7458   -3.7484   -3.0435 H         1 UNK         0.0836 
     78 H78        27.9576   -4.8395   -1.9666 H         1 UNK         0.0836 
     79 H79        32.4995   -4.3065   -2.6268 H         1 UNK         0.0731 
     80 H80        31.8863   -3.0703   -1.5643 H         1 UNK         0.0731 
     81 H81        31.0476   -4.6691   -4.8815 H         1 UNK         0.1312 
     82 H82        29.7524   -0.9680   -6.6179 H         1 UNK         0.1406 
     83 H83        31.0936   -1.0747   -2.5471 H         1 UNK         0.1631 
     84 H84        30.0625    1.1243   -5.3846 H         1 UNK         0.0717 
     85 H85        31.0138    1.0987   -3.9290 H         1 UNK         0.0717 
     86 H86        26.5998    1.9513   -4.0011 H         1 UNK         0.0934 
     87 H87        27.9308    2.6528   -4.8798 H         1 UNK         0.0934 
     88 H88        28.0504    0.6717   -6.3706 H         1 UNK         0.0739 
     89 H89        26.5162   -0.6941   -4.4511 H         1 UNK         0.3093 
     90 H90        25.0343   -3.1315   -6.5344 H         1 UNK         0.0818 
     91 H91        27.1829   -4.2239   -6.5409 H         1 UNK         0.0819 
     92 H92        27.6386   -3.5330   -4.9914 H         1 UNK         0.0819 
     93 H93        26.3721   -4.7584   -5.0806 H         1 UNK         0.0819 
     94 H94        25.5924   -2.6070   -3.6802 H         1 UNK         0.3041 
     95 H95        22.4082   -1.1778   -3.0878 H         1 UNK         0.0784 
     96 H96        21.7441   -3.5811   -3.2211 H         1 UNK         0.0793 
     97 H97        23.2318   -4.0551   -2.4129 H         1 UNK         0.0793 
     98 H98        22.0234   -3.0949   -1.5577 H         1 UNK         0.0793 
     99 H99        24.4764   -2.1886   -1.3505 H         1 UNK         0.3024 
    100 H100       26.4706    0.7511   -1.3802 H         1 UNK         0.1171 
    101 H101       25.9843    0.7936    1.0346 H         1 UNK         0.0786 
    102 H102       24.5648    1.3217    0.1480 H         1 UNK         0.0786 
    103 H103       24.6196   -0.3028    0.8204 H         1 UNK         0.0786 
    104 H104       27.0652   -1.2350    0.2837 H         1 UNK         0.2977 
    105 H105       24.6796    0.3470   -6.3958 H         1 UNK         0.3127 
    106 H106       23.8197    2.6454   -7.8137 H         1 UNK         0.0770 
    107 H107       22.8744   -0.2724   -7.9615 H         1 UNK         0.0814 
    108 H108       21.9847    1.1153   -8.5752 H         1 UNK         0.0814 
    109 H109       22.2687    0.9550   -6.8499 H         1 UNK         0.0814 
    110 H110       25.9581    0.0800   -8.8224 H         1 UNK         0.2983 
    111 H111       25.7916    0.4122  -11.6682 H         1 UNK         0.0947 
    112 H112       28.0119   -0.7399  -11.6055 H         1 UNK         0.0806 
    113 H113       26.8611   -1.5555  -10.5592 H         1 UNK         0.0806 
    114 H114       28.1000   -0.5129   -9.8635 H         1 UNK         0.0806 
    115 H115       26.9128    2.5703   -9.2419 H         1 UNK         0.3000 
    116 H116       27.8167    4.5538   -9.2156 H         1 UNK         0.0850 
    117 H117       27.8202    6.0175  -11.1809 H         1 UNK         0.0810 
    118 H118       26.3457    5.0648  -11.1839 H         1 UNK         0.0810 
    119 H119       27.6706    4.6506  -12.2723 H         1 UNK         0.0810 
    120 H120       29.5206    2.2485   -9.1618 H         1 UNK         0.3040 
    121 H121       32.0533    3.5913   -9.2651 H         1 UNK         0.0766 
    122 H122       32.0015    2.7140  -11.6263 H         1 UNK         0.0812 
    123 H123       31.5997    1.1035  -11.0331 H         1 UNK         0.0812 
    124 H124       33.1691    1.8127  -10.6737 H         1 UNK         0.0812 
    125 H125       33.6054    2.3603   -8.0113 H         1 UNK         0.3205 
    126 H126       32.4163    0.4314   -6.0944 H         1 UNK         0.0754 
    127 H127       34.5362    0.7827   -4.8477 H         1 UNK         0.0769 
    128 H128       33.7247    2.3139   -5.1353 H         1 UNK         0.0769 
    129 H129       35.1280    1.8624   -6.1034 H         1 UNK         0.0769 
    130 H130       32.6199   -1.6960   -6.5363 H         1 UNK         0.2981 
    131 H131       34.1587   -2.5949   -8.7867 H         1 UNK         0.0541 
    132 H132       35.8074   -4.3207   -8.8095 H         1 UNK         0.3459 
    133 H133       36.8785   -4.4798   -7.4422 H         1 UNK         0.3459 
    134 H134       33.1634   -4.7869   -8.3771 H         1 UNK         0.0612 
    135 H135       32.6409   -4.3283   -6.7828 H         1 UNK         0.0612 
    136 H136       29.9583   -4.6870   -7.0248 H         1 UNK         0.0624 
    137 H137       29.0824   -3.2730   -7.5555 H         1 UNK         0.0624 
@<TRIPOS>BOND
     1    1    2 1    
     2    1   72 1    
     3    1   73 1    
     4    1   74 1    
     5    2    3 2    
     6    2    4 am   BACKBONE|DICT|INTERRES
     7    4    5 1    
     8    4   75 1    
     9    5    6 1    
    10    5   35 1    
    11    5   76 1    
    12    6    7 1    
    13    6   77 1    
    14    6   78 1    
    15    7    8 1    
    16    8    9 1    
    17    8   79 1    
    18    8   80 1    
    19    9   10 ar   
    20    9   14 ar   
    21   10   11 ar   
    22   10   81 1    
    23   11   12 ar   
    24   11   71 1    
    25   12   13 ar   
    26   12   82 1    
    27   13   14 ar   
    28   13   15 1    
    29   14   83 1    
    30   15   16 1    
    31   15   84 1    
    32   15   85 1    
    33   16   17 1    
    34   17   18 1    
    35   17   86 1    
    36   17   87 1    
    37   18   19 1    
    38   18   37 1    
    39   18   88 1    
    40   19   20 am   BACKBONE|DICT|INTERRES
    41   19   89 1    
    42   20   21 2    
    43   20   22 1    
    44   22   23 1    
    45   22   24 1    
    46   22   90 1    
    47   23   91 1    
    48   23   92 1    
    49   23   93 1    
    50   24   25 am   BACKBONE|DICT|INTERRES
    51   24   94 1    
    52   25   26 2    
    53   25   27 1    
    54   27   28 1    
    55   27   29 1    
    56   27   95 1    
    57   28   96 1    
    58   28   97 1    
    59   28   98 1    
    60   29   30 am   BACKBONE|DICT|INTERRES
    61   29   99 1    
    62   30   31 2    
    63   30   32 1    
    64   32   33 1    
    65   32   34 1    
    66   32  100 1    
    67   33  101 1    
    68   33  102 1    
    69   33  103 1    
    70   34   35 am   BACKBONE|DICT|INTERRES
    71   34  104 1    
    72   35   36 2    
    73   37   38 2    
    74   37   39 am   BACKBONE|DICT|INTERRES
    75   39   40 1    
    76   39  105 1    
    77   40   41 1    
    78   40   42 1    
    79   40  106 1    
    80   41  107 1    
    81   41  108 1    
    82   41  109 1    
    83   42   43 2    
    84   42   44 am   BACKBONE|DICT|INTERRES
    85   44   45 1    
    86   44  110 1    
    87   45   46 1    
    88   45   47 1    
    89   45  111 1    
    90   46  112 1    
    91   46  113 1    
    92   46  114 1    
    93   47   48 2    
    94   47   49 am   BACKBONE|DICT|INTERRES
    95   49   50 1    
    96   49  115 1    
    97   50   51 1    
    98   50   52 1    
    99   50  116 1    
   100   51  117 1    
   101   51  118 1    
   102   51  119 1    
   103   52   53 2    
   104   52   54 am   BACKBONE|DICT|INTERRES
   105   54   55 1    
   106   54  120 1    
   107   55   56 1    
   108   55   57 1    
   109   55  121 1    
   110   56  122 1    
   111   56  123 1    
   112   56  124 1    
   113   57   58 2    
   114   57   59 am   BACKBONE|DICT|INTERRES
   115   59   60 1    
   116   59  125 1    
   117   60   61 1    
   118   60   62 1    
   119   60  126 1    
   120   61  127 1    
   121   61  128 1    
   122   61  129 1    
   123   62   63 2    
   124   62   64 am   BACKBONE|DICT|INTERRES
   125   64   65 1    
   126   64  130 1    
   127   65   66 1    
   128   65   69 1    
   129   65  131 1    
   130   66   67 am   BACKBONE|DICT|INTERRES
   131   66   68 2    
   132   67  132 1    
   133   67  133 1    
   134   69   70 1    
   135   69  134 1    
   136   69  135 1    
   137   70   71 1    
   138   71  136 1    
   139   71  137 1    
@<TRIPOS>SUBSTRUCTURE
     1 UNK         1 GROUP             0       ****    0 ROOT    
