@<TRIPOS>MOLECULE
3R137
137   139    1
SMALL
USER_CHARGES


@<TRIPOS>ATOM
      1 CA         29.6510   -1.4733    3.1341 C.3       0 UNK        -0.2020 
      2 C          29.4571   -0.9925    1.7034 C.2       0 UNK         0.4855 
      3 O          29.5712    0.2056    1.4423 O.2       0 UNK        -0.5197 
      4 N          29.1766   -1.9200    0.7808 N.am      1 UNK        -0.4892 
      5 CA         28.8995   -1.6591   -0.6340 C.3       1 UNK         0.0835 
      6 C6         29.6256   -2.6791   -1.5552 C.3       12 UNK        -0.0855 
      7 S7         29.2562   -4.4378   -1.2009 S.3       12 UNK        -0.2931 
      8 C8         30.7076   -5.2706   -1.9274 C.3       12 UNK         0.0378 
      9 C9         30.9138   -4.8777   -3.3834 C.ar      12 UNK        -0.0802 
     10 C10        32.0446   -4.1485   -3.7639 C.ar      12 UNK        -0.0944 
     11 C11        32.2042   -3.7198   -5.0860 C.ar      12 UNK        -0.0787 
     12 C12        31.2276   -4.0452   -6.0315 C.ar      12 UNK        -0.0862 
     13 C13        30.0921   -4.7740   -5.6636 C.ar      12 UNK        -0.0733 
     14 C14        29.9512   -5.2054   -4.3421 C.ar      12 UNK        -0.0832 
     15 C15        28.9906   -5.0423   -6.6821 C.3       12 UNK         0.0240 
     16 S16        27.4047   -4.2724   -6.2037 S.3       12 UNK        -0.2522 
     17 C17        27.8862   -2.5347   -5.9205 C.3       12 UNK        -0.0967 
     18 CA         27.1996   -1.5575   -6.8980 C.3       5 UNK         0.0660 
     19 N          25.7417   -1.5330   -6.7306 N.am      5 UNK        -0.4015 
     20 C          24.8789   -0.8054   -7.4554 C.2       4 UNK         0.4946 
     21 O          25.2119   -0.0376   -8.3584 O.2       4 UNK        -0.5353 
     22 CA         23.3974   -0.9178   -7.0658 C.3       4 UNK         0.0277 
     23 CB         22.8294   -2.3001   -7.4290 C.3       4 UNK        -0.1981 
     24 N          23.2026   -0.6531   -5.6392 N.am      4 UNK        -0.4209 
     25 C          23.3483    0.5541   -5.0730 C.2       3 UNK         0.4942 
     26 O          23.5408    1.5905   -5.7087 O.2       3 UNK        -0.5208 
     27 CA         23.2940    0.6185   -3.5358 C.3       3 UNK         0.0250 
     28 CB         21.8610    0.9077   -3.0603 C.3       3 UNK        -0.1990 
     29 N          23.8005   -0.5825   -2.8587 N.am      3 UNK        -0.4232 
     30 C          25.0528   -1.0496   -2.9601 C.2       2 UNK         0.4993 
     31 O          25.9081   -0.5641   -3.7037 O.2       2 UNK        -0.5286 
     32 CA         25.3876   -2.3028   -2.1357 C.3       2 UNK         0.0209 
     33 CB         25.0531   -3.5736   -2.9334 C.3       2 UNK        -0.1931 
     34 N          26.8023   -2.3383   -1.7584 N.am      2 UNK        -0.4546 
     35 C          27.3723   -1.5361   -0.8491 C.2       1 UNK         0.5154 
     36 O          26.7316   -0.7193   -0.1827 O.2       1 UNK        -0.5181 
     37 C          27.8395   -0.1650   -6.7636 C.2       5 UNK         0.5014 
     38 O          28.7607    0.1388   -7.5192 O.2       5 UNK        -0.5248 
     39 N          27.3185    0.6579   -5.8419 N.am      6 UNK        -0.4434 
     40 CA         27.7243    2.0461   -5.6124 C.3       6 UNK         0.0363 
     41 CB         26.8792    2.6422   -4.4759 C.3       6 UNK        -0.1936 
     42 C          27.6578    2.9453   -6.8629 C.2       6 UNK         0.5081 
     43 O          28.4382    3.8944   -6.9516 O.2       6 UNK        -0.5248 
     44 N          26.7526    2.6287   -7.7992 N.am      7 UNK        -0.4718 
     45 CA         26.6253    3.2986   -9.0921 C.3       7 UNK         0.0273 
     46 CB         25.1399    3.5969   -9.3555 C.3       7 UNK        -0.1935 
     47 C          27.2109    2.4548  -10.2365 C.2       7 UNK         0.5018 
     48 O          27.8592    3.0151  -11.1211 O.2       7 UNK        -0.5186 
     49 N          26.9373    1.1423  -10.2343 N.am      8 UNK        -0.4240 
     50 CA         27.2329    0.2372  -11.3475 C.3       8 UNK         0.0235 
     51 CB         26.3082   -0.9885  -11.2559 C.3       8 UNK        -0.2000 
     52 C          28.6976   -0.2197  -11.4416 C.2       8 UNK         0.4941 
     53 O          29.1377   -0.5472  -12.5454 O.2       8 UNK        -0.5273 
     54 N          29.4123   -0.2793  -10.3120 N.am      9 UNK        -0.4262 
     55 CA         30.7789   -0.7950  -10.2170 C.3       9 UNK         0.0264 
     56 CB         30.7826   -1.9756   -9.2267 C.3       9 UNK        -0.1955 
     57 C          31.7434    0.3077   -9.7597 C.2       9 UNK         0.5031 
     58 O          31.3178    1.4170   -9.4296 O.2       9 UNK        -0.5390 
     59 N          33.0396   -0.0339   -9.7072 N.am      10 UNK        -0.4204 
     60 CA         34.1296    0.8298   -9.2302 C.3       10 UNK         0.0237 
     61 CB         35.4719    0.1090   -9.4378 C.3       10 UNK        -0.1985 
     62 C          33.9856    1.2829   -7.7632 C.2       10 UNK         0.4970 
     63 O          34.5463    2.3159   -7.3955 O.2       10 UNK        -0.4914 
     64 N          33.2253    0.5200   -6.9678 N.am      11 UNK        -0.4285 
     65 CA         32.7831    0.8852   -5.6154 C.3       11 UNK         0.1007 
     66 C          31.6999    2.0058   -5.5765 C.2       11 UNK         0.5703 
     67 N          31.1225    2.4316   -6.6942 N.am      11 UNK        -0.7361 
     68 O          31.3873    2.5108   -4.5012 O.2       11 UNK        -0.4986 
     69 C69        32.3368   -0.3681   -4.8150 C.3       12 UNK        -0.0947 
     70 S70        33.7422   -1.4689   -4.4353 S.3       12 UNK        -0.2240 
     71 C71        33.4304   -2.9141   -5.5034 C.3       12 UNK         0.0194 
     72 H72        28.9264   -0.9942    3.7920 H         1 UNK         0.0906 
     73 H73        29.5275   -2.5525    3.2230 H         1 UNK         0.0906 
     74 H74        30.6507   -1.2171    3.4840 H         1 UNK         0.0906 
     75 H75        29.0816   -2.8878    1.0573 H         1 UNK         0.3140 
     76 H76        29.2967   -0.6762   -0.8980 H         1 UNK         0.1085 
     77 H77        29.4175   -2.4714   -2.6070 H         1 UNK         0.0836 
     78 H78        30.7020   -2.5350   -1.4466 H         1 UNK         0.0836 
     79 H79        31.5894   -5.0326   -1.3303 H         1 UNK         0.0731 
     80 H80        30.5714   -6.3508   -1.8598 H         1 UNK         0.0731 
     81 H81        32.7928   -3.8924   -3.0263 H         1 UNK         0.1312 
     82 H82        31.3425   -3.7160   -7.0537 H         1 UNK         0.1406 
     83 H83        29.0660   -5.7533   -4.0480 H         1 UNK         0.1631 
     84 H84        29.2741   -4.6742   -7.6694 H         1 UNK         0.0717 
     85 H85        28.8478   -6.1189   -6.7825 H         1 UNK         0.0717 
     86 H86        27.6507   -2.2790   -4.8858 H         1 UNK         0.0934 
     87 H87        28.9687   -2.4365   -6.0052 H         1 UNK         0.0934 
     88 H88        27.3976   -1.8973   -7.9169 H         1 UNK         0.0739 
     89 H89        25.3791   -2.1145   -5.9914 H         1 UNK         0.3093 
     90 H90        22.8460   -0.1652   -7.6341 H         1 UNK         0.0818 
     91 H91        21.7583   -2.3503   -7.2324 H         1 UNK         0.0819 
     92 H92        22.9716   -2.5114   -8.4899 H         1 UNK         0.0819 
     93 H93        23.3098   -3.1039   -6.8698 H         1 UNK         0.0819 
     94 H94        23.0200   -1.4442   -5.0398 H         1 UNK         0.3041 
     95 H95        23.9284    1.4531   -3.2292 H         1 UNK         0.0784 
     96 H96        21.4687    1.8108   -3.5304 H         1 UNK         0.0793 
     97 H97        21.1804    0.0912   -3.3053 H         1 UNK         0.0793 
     98 H98        21.8239    1.0655   -1.9822 H         1 UNK         0.0793 
     99 H99        23.1549   -1.0523   -2.2397 H         1 UNK         0.3024 
    100 H100       24.7911   -2.2910   -1.2204 H         1 UNK         0.1171 
    101 H101       25.2641   -4.4721   -2.3530 H         1 UNK         0.0786 
    102 H102       23.9962   -3.6051   -3.2012 H         1 UNK         0.0786 
    103 H103       25.6264   -3.6330   -3.8583 H         1 UNK         0.0786 
    104 H104       27.3892   -3.0037   -2.2415 H         1 UNK         0.2977 
    105 H105       26.6219    0.2792   -5.2021 H         1 UNK         0.3127 
    106 H106       28.7611    2.0201   -5.2789 H         1 UNK         0.0770 
    107 H107       25.8229    2.6853   -4.7412 H         1 UNK         0.0814 
    108 H108       27.1994    3.6590   -4.2449 H         1 UNK         0.0814 
    109 H109       26.9729    2.0573   -3.5606 H         1 UNK         0.0814 
    110 H110       26.1692    1.8137   -7.6501 H         1 UNK         0.2983 
    111 H111       27.1608    4.2506   -9.0797 H         1 UNK         0.0947 
    112 H112       25.0050    4.0922  -10.3181 H         1 UNK         0.0806 
    113 H113       24.7285    4.2562   -8.5911 H         1 UNK         0.0806 
    114 H114       24.5393    2.6860   -9.3682 H         1 UNK         0.0806 
    115 H115       26.3675    0.7570   -9.4826 H         1 UNK         0.3000 
    116 H116       26.9992    0.7602  -12.2777 H         1 UNK         0.0850 
    117 H117       26.4599   -1.6584  -12.1035 H         1 UNK         0.0810 
    118 H118       25.2581   -0.6953  -11.2588 H         1 UNK         0.0810 
    119 H119       26.4921   -1.5643  -10.3481 H         1 UNK         0.0810 
    120 H120       29.0219    0.0754   -9.4416 H         1 UNK         0.3040 
    121 H121       31.1261   -1.1542  -11.1878 H         1 UNK         0.0766 
    122 H122       31.7498   -2.4786   -9.2094 H         1 UNK         0.0812 
    123 H123       30.0402   -2.7245   -9.5032 H         1 UNK         0.0812 
    124 H124       30.5624   -1.6513   -8.2093 H         1 UNK         0.0812 
    125 H125       33.3058   -0.9596  -10.0117 H         1 UNK         0.3205 
    126 H126       34.1249    1.7317   -9.8458 H         1 UNK         0.0754 
    127 H127       36.3058    0.7375   -9.1214 H         1 UNK         0.0769 
    128 H128       35.6349   -0.1347  -10.4879 H         1 UNK         0.0769 
    129 H129       35.5265   -0.8170   -8.8636 H         1 UNK         0.0769 
    130 H130       32.8037   -0.3055   -7.3609 H         1 UNK         0.2981 
    131 H131       33.6455    1.3116   -5.0991 H         1 UNK         0.0541 
    132 H132       31.3266    2.0078   -7.5942 H         1 UNK         0.3459 
    133 H133       30.4081    3.1450   -6.6438 H         1 UNK         0.3459 
    134 H134       31.5578   -0.9141   -5.3503 H         1 UNK         0.0612 
    135 H135       31.8991   -0.0817   -3.8569 H         1 UNK         0.0612 
    136 H136       34.3028   -3.5675   -5.4652 H         1 UNK         0.0624 
    137 H137       33.3451   -2.5747   -6.5366 H         1 UNK         0.0624 
@<TRIPOS>BOND
     1    1    2 1    
     2    1   72 1    
     3    1   73 1    
     4    1   74 1    
     5    2    3 2    
     6    2    4 am   BACKBONE|DICT|INTERRES
     7    4    5 1    
     8    4   75 1    
     9    5    6 1    
    10    5   35 1    
    11    5   76 1    
    12    6    7 1    
    13    6   77 1    
    14    6   78 1    
    15    7    8 1    
    16    8    9 1    
    17    8   79 1    
    18    8   80 1    
    19    9   10 ar   
    20    9   14 ar   
    21   10   11 ar   
    22   10   81 1    
    23   11   12 ar   
    24   11   71 1    
    25   12   13 ar   
    26   12   82 1    
    27   13   14 ar   
    28   13   15 1    
    29   14   83 1    
    30   15   16 1    
    31   15   84 1    
    32   15   85 1    
    33   16   17 1    
    34   17   18 1    
    35   17   86 1    
    36   17   87 1    
    37   18   19 1    
    38   18   37 1    
    39   18   88 1    
    40   19   20 am   BACKBONE|DICT|INTERRES
    41   19   89 1    
    42   20   21 2    
    43   20   22 1    
    44   22   23 1    
    45   22   24 1    
    46   22   90 1    
    47   23   91 1    
    48   23   92 1    
    49   23   93 1    
    50   24   25 am   BACKBONE|DICT|INTERRES
    51   24   94 1    
    52   25   26 2    
    53   25   27 1    
    54   27   28 1    
    55   27   29 1    
    56   27   95 1    
    57   28   96 1    
    58   28   97 1    
    59   28   98 1    
    60   29   30 am   BACKBONE|DICT|INTERRES
    61   29   99 1    
    62   30   31 2    
    63   30   32 1    
    64   32   33 1    
    65   32   34 1    
    66   32  100 1    
    67   33  101 1    
    68   33  102 1    
    69   33  103 1    
    70   34   35 am   BACKBONE|DICT|INTERRES
    71   34  104 1    
    72   35   36 2    
    73   37   38 2    
    74   37   39 am   BACKBONE|DICT|INTERRES
    75   39   40 1    
    76   39  105 1    
    77   40   41 1    
    78   40   42 1    
    79   40  106 1    
    80   41  107 1    
    81   41  108 1    
    82   41  109 1    
    83   42   43 2    
    84   42   44 am   BACKBONE|DICT|INTERRES
    85   44   45 1    
    86   44  110 1    
    87   45   46 1    
    88   45   47 1    
    89   45  111 1    
    90   46  112 1    
    91   46  113 1    
    92   46  114 1    
    93   47   48 2    
    94   47   49 am   BACKBONE|DICT|INTERRES
    95   49   50 1    
    96   49  115 1    
    97   50   51 1    
    98   50   52 1    
    99   50  116 1    
   100   51  117 1    
   101   51  118 1    
   102   51  119 1    
   103   52   53 2    
   104   52   54 am   BACKBONE|DICT|INTERRES
   105   54   55 1    
   106   54  120 1    
   107   55   56 1    
   108   55   57 1    
   109   55  121 1    
   110   56  122 1    
   111   56  123 1    
   112   56  124 1    
   113   57   58 2    
   114   57   59 am   BACKBONE|DICT|INTERRES
   115   59   60 1    
   116   59  125 1    
   117   60   61 1    
   118   60   62 1    
   119   60  126 1    
   120   61  127 1    
   121   61  128 1    
   122   61  129 1    
   123   62   63 2    
   124   62   64 am   BACKBONE|DICT|INTERRES
   125   64   65 1    
   126   64  130 1    
   127   65   66 1    
   128   65   69 1    
   129   65  131 1    
   130   66   67 am   BACKBONE|DICT|INTERRES
   131   66   68 2    
   132   67  132 1    
   133   67  133 1    
   134   69   70 1    
   135   69  134 1    
   136   69  135 1    
   137   70   71 1    
   138   71  136 1    
   139   71  137 1    
@<TRIPOS>SUBSTRUCTURE
     1 UNK         1 GROUP             0       ****    0 ROOT    
