@<TRIPOS>MOLECULE
3R137
137   139    1
SMALL
USER_CHARGES


@<TRIPOS>ATOM
      1 CA         24.9601   -6.0562    0.5057 C.3       0 UNK        -0.2020 
      2 C          25.8456   -4.8767    0.1346 C.2       0 UNK         0.4855 
      3 O          26.0060   -3.9537    0.9339 O.2       0 UNK        -0.5197 
      4 N          26.4122   -4.8860   -1.0784 N.am      1 UNK        -0.4892 
      5 CA         27.3234   -3.8659   -1.6165 C.3       1 UNK         0.0835 
      6 C6         28.2150   -4.4482   -2.7446 C.3       12 UNK        -0.0855 
      7 S7         29.5326   -5.5361   -2.1078 S.3       12 UNK        -0.2931 
      8 C8         30.7075   -4.3449   -1.3629 C.3       12 UNK         0.0378 
      9 C9         30.9735   -3.1174   -2.2305 C.ar      12 UNK        -0.0802 
     10 C10        31.5033   -3.2638   -3.5146 C.ar      12 UNK        -0.0944 
     11 C11        31.7385   -2.1462   -4.3194 C.ar      12 UNK        -0.0787 
     12 C12        31.4582   -0.8675   -3.8253 C.ar      12 UNK        -0.0862 
     13 C13        30.9300   -0.7024   -2.5384 C.ar      12 UNK        -0.0733 
     14 C14        30.6874   -1.8343   -1.7507 C.ar      12 UNK        -0.0832 
     15 C15        30.6707    0.6868   -1.9536 C.3       12 UNK         0.0240 
     16 S16        29.8773    1.8701   -3.0973 S.3       12 UNK        -0.2522 
     17 C17        28.2467    1.1067   -3.3811 C.3       12 UNK        -0.0967 
     18 CA         27.9200    1.0188   -4.8953 C.3       5 UNK         0.0660 
     19 N          27.2561   -0.2348   -5.2428 N.am      5 UNK        -0.4015 
     20 C          27.0624   -0.6781   -6.4910 C.2       4 UNK         0.4946 
     21 O          27.4868   -0.1082   -7.4977 O.2       4 UNK        -0.5353 
     22 CA         26.2308   -1.9615   -6.6354 C.3       4 UNK         0.0277 
     23 CB         27.1269   -3.2034   -6.5034 C.3       4 UNK        -0.1981 
     24 N          25.1433   -2.0278   -5.6532 N.am      4 UNK        -0.4209 
     25 C          24.0520   -1.2492   -5.6787 C.2       3 UNK         0.4942 
     26 O          23.8304   -0.4127   -6.5526 O.2       3 UNK        -0.5208 
     27 CA         23.0555   -1.4039   -4.5165 C.3       3 UNK         0.0250 
     28 CB         22.1743   -2.6475   -4.7155 C.3       3 UNK        -0.1990 
     29 N          23.7036   -1.4622   -3.2033 N.am      3 UNK        -0.4232 
     30 C          24.4006   -0.4550   -2.6586 C.2       2 UNK         0.4993 
     31 O          24.5682    0.6361   -3.2003 O.2       2 UNK        -0.5286 
     32 CA         25.0776   -0.7226   -1.3046 C.3       2 UNK         0.0209 
     33 CB         24.0725   -0.5497   -0.1549 C.3       2 UNK        -0.1931 
     34 N          25.7405   -2.0272   -1.1817 N.am      2 UNK        -0.4546 
     35 C          26.5927   -2.5770   -2.0575 C.2       1 UNK         0.5154 
     36 O          26.8151   -2.0966   -3.1695 O.2       1 UNK        -0.5181 
     37 C          27.1191    2.2375   -5.4033 C.2       5 UNK         0.5014 
     38 O          27.6947    3.1061   -6.0594 O.2       5 UNK        -0.5248 
     39 N          25.7998    2.2536   -5.1513 N.am      6 UNK        -0.4434 
     40 CA         24.8624    3.2722   -5.6397 C.3       6 UNK         0.0363 
     41 CB         23.4871    3.0700   -4.9846 C.3       6 UNK        -0.1936 
     42 C          24.7265    3.2934   -7.1720 C.2       6 UNK         0.5081 
     43 O          24.6036    4.3728   -7.7510 O.2       6 UNK        -0.5248 
     44 N          24.7865    2.1136   -7.8059 N.am      7 UNK        -0.4718 
     45 CA         24.8243    1.9473   -9.2634 C.3       7 UNK         0.0273 
     46 CB         24.4866    0.4888   -9.6138 C.3       7 UNK        -0.1935 
     47 C          26.1670    2.3550   -9.9031 C.2       7 UNK         0.5018 
     48 O          26.2389    2.4197  -11.1311 O.2       7 UNK        -0.5186 
     49 N          27.1906    2.6171   -9.0755 N.am      8 UNK        -0.4240 
     50 CA         28.5593    2.9973   -9.4285 C.3       8 UNK         0.0235 
     51 CB         28.5922    4.3752  -10.1247 C.3       8 UNK        -0.2000 
     52 C          29.2836    1.8946  -10.2192 C.2       8 UNK         0.4941 
     53 O          29.8168    2.1583  -11.2987 O.2       8 UNK        -0.5273 
     54 N          29.3008    0.6760   -9.6546 N.am      9 UNK        -0.4262 
     55 CA         29.9908   -0.4994  -10.2038 C.3       9 UNK         0.0264 
     56 CB         29.6998   -1.7221   -9.3181 C.3       9 UNK        -0.1955 
     57 C          31.5115   -0.3224  -10.3919 C.2       9 UNK         0.5031 
     58 O          32.0744   -0.9546  -11.2868 O.2       9 UNK        -0.5390 
     59 N          32.1316    0.5375   -9.5656 N.am      10 UNK        -0.4204 
     60 CA         33.5330    0.9796   -9.6227 C.3       10 UNK         0.0237 
     61 CB         33.7557    1.8881  -10.8512 C.3       10 UNK        -0.1985 
     62 C          34.5430   -0.1823   -9.5440 C.2       10 UNK         0.4970 
     63 O          35.4615   -0.2663  -10.3625 O.2       10 UNK        -0.4914 
     64 N          34.3327   -1.0677   -8.5635 N.am      11 UNK        -0.4285 
     65 CA         35.1822   -2.2310   -8.2797 C.3       11 UNK         0.1007 
     66 C          36.6247   -1.8663   -7.8202 C.2       11 UNK         0.5703 
     67 N          37.5709   -2.7837   -7.9721 N.am      11 UNK        -0.7361 
     68 O          36.8903   -0.7793   -7.3085 O.2       11 UNK        -0.4986 
     69 C69        34.4760   -3.2136   -7.3085 C.3       12 UNK        -0.0947 
     70 S70        34.1111   -2.5178   -5.6581 S.3       12 UNK        -0.2240 
     71 C71        32.3027   -2.3371   -5.7175 C.3       12 UNK         0.0194 
     72 H72        24.9057   -6.7939   -0.2947 H         1 UNK         0.0906 
     73 H73        25.3485   -6.5502    1.3959 H         1 UNK         0.0906 
     74 H74        23.9484   -5.7130    0.7205 H         1 UNK         0.0906 
     75 H75        26.2323   -5.6666   -1.6942 H         1 UNK         0.3140 
     76 H76        27.9799   -3.5430   -0.8063 H         1 UNK         0.1085 
     77 H77        27.6089   -5.0122   -3.4554 H         1 UNK         0.0836 
     78 H78        28.6915   -3.6696   -3.3404 H         1 UNK         0.0836 
     79 H79        31.6526   -4.8568   -1.1769 H         1 UNK         0.0731 
     80 H80        30.3290   -4.0490   -0.3835 H         1 UNK         0.0731 
     81 H81        31.7258   -4.2531   -3.8910 H         1 UNK         0.1312 
     82 H82        31.6604   -0.0003   -4.4387 H         1 UNK         0.1406 
     83 H83        30.2884   -1.7145   -0.7525 H         1 UNK         0.1631 
     84 H84        31.6260    1.1058   -1.6352 H         1 UNK         0.0717 
     85 H85        30.0541    0.6174   -1.0559 H         1 UNK         0.0717 
     86 H86        28.2636    0.1103   -2.9385 H         1 UNK         0.0934 
     87 H87        27.4848    1.6553   -2.8234 H         1 UNK         0.0934 
     88 H88        28.8605    1.0062   -5.4515 H         1 UNK         0.0739 
     89 H89        26.9333   -0.8153   -4.4712 H         1 UNK         0.3093 
     90 H90        25.7897   -1.9637   -7.6340 H         1 UNK         0.0818 
     91 H91        27.6093   -3.2537   -5.5272 H         1 UNK         0.0819 
     92 H92        26.5570   -4.1217   -6.6447 H         1 UNK         0.0819 
     93 H93        27.9179   -3.1955   -7.2538 H         1 UNK         0.0819 
     94 H94        25.2900   -2.6279   -4.8534 H         1 UNK         0.3041 
     95 H95        22.4067   -0.5252   -4.5250 H         1 UNK         0.0784 
     96 H96        21.6708   -2.6169   -5.6829 H         1 UNK         0.0793 
     97 H97        22.7566   -3.5692   -4.6801 H         1 UNK         0.0793 
     98 H98        21.3992   -2.7103   -3.9515 H         1 UNK         0.0793 
     99 H99        23.6344   -2.3289   -2.6902 H         1 UNK         0.3024 
    100 H100       25.8552    0.0354   -1.1893 H         1 UNK         0.1171 
    101 H101       23.5756    0.4201   -0.2113 H         1 UNK         0.0786 
    102 H102       24.5670   -0.6019    0.8153 H         1 UNK         0.0786 
    103 H103       23.2971   -1.3165   -0.1770 H         1 UNK         0.0786 
    104 H104       25.6344   -2.5131   -0.2948 H         1 UNK         0.2977 
    105 H105       25.3984    1.5260   -4.5603 H         1 UNK         0.3127 
    106 H106       25.2461    4.2470   -5.3313 H         1 UNK         0.0770 
    107 H107       23.0689    2.0909   -5.2223 H         1 UNK         0.0814 
    108 H108       22.7754    3.8226   -5.3266 H         1 UNK         0.0814 
    109 H109       23.5492    3.1524   -3.8994 H         1 UNK         0.0814 
    110 H110       24.8016    1.2620   -7.2532 H         1 UNK         0.2983 
    111 H111       24.0551    2.5888   -9.6987 H         1 UNK         0.0947 
    112 H112       24.4569    0.3406  -10.6940 H         1 UNK         0.0806 
    113 H113       23.5107    0.2012   -9.2223 H         1 UNK         0.0806 
    114 H114       25.2281   -0.2010   -9.2109 H         1 UNK         0.0806 
    115 H115       27.0214    2.5123   -8.0821 H         1 UNK         0.3000 
    116 H116       29.0978    3.0986   -8.4850 H         1 UNK         0.0850 
    117 H117       29.6193    4.7056  -10.2842 H         1 UNK         0.0810 
    118 H118       28.0973    5.1353   -9.5201 H         1 UNK         0.0810 
    119 H119       28.1049    4.3521  -11.0998 H         1 UNK         0.0810 
    120 H120       28.7540    0.5227   -8.8090 H         1 UNK         0.3040 
    121 H121       29.5671   -0.6878  -11.1924 H         1 UNK         0.0766 
    122 H122       28.6335   -1.9478   -9.3011 H         1 UNK         0.0812 
    123 H123       30.0259   -1.5643   -8.2894 H         1 UNK         0.0812 
    124 H124       30.2108   -2.6105   -9.6923 H         1 UNK         0.0812 
    125 H125       31.5625    0.9799   -8.8581 H         1 UNK         0.3205 
    126 H126       33.7024    1.5877   -8.7327 H         1 UNK         0.0754 
    127 H127       34.7608    2.3119  -10.8493 H         1 UNK         0.0769 
    128 H128       33.0528    2.7213  -10.8600 H         1 UNK         0.0769 
    129 H129       33.6340    1.3400  -11.7862 H         1 UNK         0.0769 
    130 H130       33.5767   -0.9074   -7.9172 H         1 UNK         0.2981 
    131 H131       35.2941   -2.7551   -9.2310 H         1 UNK         0.0541 
    132 H132       37.3669   -3.6820   -8.3817 H         1 UNK         0.3459 
    133 H133       38.5097   -2.5722   -7.6720 H         1 UNK         0.3459 
    134 H134       33.5516   -3.5712   -7.7641 H         1 UNK         0.0612 
    135 H135       35.0872   -4.1064   -7.1661 H         1 UNK         0.0612 
    136 H136       31.8558   -3.2248   -6.1679 H         1 UNK         0.0624 
    137 H137       32.0383   -1.4952   -6.3588 H         1 UNK         0.0624 
@<TRIPOS>BOND
     1    1    2 1    
     2    1   72 1    
     3    1   73 1    
     4    1   74 1    
     5    2    3 2    
     6    2    4 am   BACKBONE|DICT|INTERRES
     7    4    5 1    
     8    4   75 1    
     9    5    6 1    
    10    5   35 1    
    11    5   76 1    
    12    6    7 1    
    13    6   77 1    
    14    6   78 1    
    15    7    8 1    
    16    8    9 1    
    17    8   79 1    
    18    8   80 1    
    19    9   10 ar   
    20    9   14 ar   
    21   10   11 ar   
    22   10   81 1    
    23   11   12 ar   
    24   11   71 1    
    25   12   13 ar   
    26   12   82 1    
    27   13   14 ar   
    28   13   15 1    
    29   14   83 1    
    30   15   16 1    
    31   15   84 1    
    32   15   85 1    
    33   16   17 1    
    34   17   18 1    
    35   17   86 1    
    36   17   87 1    
    37   18   19 1    
    38   18   37 1    
    39   18   88 1    
    40   19   20 am   BACKBONE|DICT|INTERRES
    41   19   89 1    
    42   20   21 2    
    43   20   22 1    
    44   22   23 1    
    45   22   24 1    
    46   22   90 1    
    47   23   91 1    
    48   23   92 1    
    49   23   93 1    
    50   24   25 am   BACKBONE|DICT|INTERRES
    51   24   94 1    
    52   25   26 2    
    53   25   27 1    
    54   27   28 1    
    55   27   29 1    
    56   27   95 1    
    57   28   96 1    
    58   28   97 1    
    59   28   98 1    
    60   29   30 am   BACKBONE|DICT|INTERRES
    61   29   99 1    
    62   30   31 2    
    63   30   32 1    
    64   32   33 1    
    65   32   34 1    
    66   32  100 1    
    67   33  101 1    
    68   33  102 1    
    69   33  103 1    
    70   34   35 am   BACKBONE|DICT|INTERRES
    71   34  104 1    
    72   35   36 2    
    73   37   38 2    
    74   37   39 am   BACKBONE|DICT|INTERRES
    75   39   40 1    
    76   39  105 1    
    77   40   41 1    
    78   40   42 1    
    79   40  106 1    
    80   41  107 1    
    81   41  108 1    
    82   41  109 1    
    83   42   43 2    
    84   42   44 am   BACKBONE|DICT|INTERRES
    85   44   45 1    
    86   44  110 1    
    87   45   46 1    
    88   45   47 1    
    89   45  111 1    
    90   46  112 1    
    91   46  113 1    
    92   46  114 1    
    93   47   48 2    
    94   47   49 am   BACKBONE|DICT|INTERRES
    95   49   50 1    
    96   49  115 1    
    97   50   51 1    
    98   50   52 1    
    99   50  116 1    
   100   51  117 1    
   101   51  118 1    
   102   51  119 1    
   103   52   53 2    
   104   52   54 am   BACKBONE|DICT|INTERRES
   105   54   55 1    
   106   54  120 1    
   107   55   56 1    
   108   55   57 1    
   109   55  121 1    
   110   56  122 1    
   111   56  123 1    
   112   56  124 1    
   113   57   58 2    
   114   57   59 am   BACKBONE|DICT|INTERRES
   115   59   60 1    
   116   59  125 1    
   117   60   61 1    
   118   60   62 1    
   119   60  126 1    
   120   61  127 1    
   121   61  128 1    
   122   61  129 1    
   123   62   63 2    
   124   62   64 am   BACKBONE|DICT|INTERRES
   125   64   65 1    
   126   64  130 1    
   127   65   66 1    
   128   65   69 1    
   129   65  131 1    
   130   66   67 am   BACKBONE|DICT|INTERRES
   131   66   68 2    
   132   67  132 1    
   133   67  133 1    
   134   69   70 1    
   135   69  134 1    
   136   69  135 1    
   137   70   71 1    
   138   71  136 1    
   139   71  137 1    
@<TRIPOS>SUBSTRUCTURE
     1 UNK         1 GROUP             0       ****    0 ROOT    
