@<TRIPOS>MOLECULE
3R137
137   139    1
SMALL
USER_CHARGES


@<TRIPOS>ATOM
      1 CA         29.7381   -5.3837   -8.8752 C.3       0 UNK        -0.2020 
      2 C          29.1924   -5.8129   -7.5217 C.2       0 UNK         0.4855 
      3 O          28.5518   -6.8597   -7.4246 O.2       0 UNK        -0.5197 
      4 N          29.4451   -5.0144   -6.4751 N.am      1 UNK        -0.4892 
      5 CA         28.9790   -5.2684   -5.1026 C.3       1 UNK         0.0835 
      6 C6         29.7330   -4.3848   -4.0746 C.3       12 UNK        -0.0855 
      7 S7         29.7272   -5.0968   -2.3966 S.3       12 UNK        -0.2931 
      8 C8         31.1427   -4.2387   -1.6330 C.3       12 UNK         0.0378 
      9 C9         30.9680   -2.7245   -1.5454 C.ar      12 UNK        -0.0802 
     10 C10        31.9967   -1.8818   -1.9779 C.ar      12 UNK        -0.0944 
     11 C11        31.8835   -0.4915   -1.8584 C.ar      12 UNK        -0.0787 
     12 C12        30.7286    0.0511   -1.2881 C.ar      12 UNK        -0.0862 
     13 C13        29.6891   -0.7762   -0.8519 C.ar      12 UNK        -0.0733 
     14 C14        29.8147   -2.1629   -0.9850 C.ar      12 UNK        -0.0832 
     15 C15        28.4566   -0.1801   -0.1830 C.3       12 UNK         0.0240 
     16 S16        27.0978    0.1266   -1.3567 S.3       12 UNK        -0.2522 
     17 C17        27.6112    1.6927   -2.1418 C.3       12 UNK        -0.0967 
     18 CA         27.3910    1.6805   -3.6763 C.3       5 UNK         0.0660 
     19 N          25.9612    1.5831   -4.0021 N.am      5 UNK        -0.4015 
     20 C          25.4027    1.3201   -5.1915 C.2       4 UNK         0.4946 
     21 O          26.0356    1.1513   -6.2363 O.2       4 UNK        -0.5353 
     22 CA         23.8729    1.1625   -5.1945 C.3       4 UNK         0.0277 
     23 CB         23.2670    1.3223   -6.6007 C.3       4 UNK        -0.1981 
     24 N          23.5265   -0.1595   -4.6795 N.am      4 UNK        -0.4209 
     25 C          23.4793   -0.4959   -3.3834 C.2       3 UNK         0.4942 
     26 O          23.5689    0.3210   -2.4657 O.2       3 UNK        -0.5208 
     27 CA         23.3290   -1.9947   -3.0567 C.3       3 UNK         0.0250 
     28 CB         21.8593   -2.3376   -2.7638 C.3       3 UNK        -0.1990 
     29 N          23.8332   -2.8771   -4.1182 N.am      3 UNK        -0.4232 
     30 C          25.1248   -2.9829   -4.4633 C.2       2 UNK         0.4993 
     31 O          26.0359   -2.3816   -3.8920 O.2       2 UNK        -0.5286 
     32 CA         25.4322   -3.8591   -5.6905 C.3       2 UNK         0.0209 
     33 CB         25.0580   -3.1155   -6.9862 C.3       2 UNK        -0.1931 
     34 N          26.8496   -4.2205   -5.7501 N.am      2 UNK        -0.4546 
     35 C          27.4444   -5.1264   -4.9620 C.2       1 UNK         0.5154 
     36 O          26.8295   -5.8477   -4.1738 O.2       1 UNK        -0.5181 
     37 C          28.0928    2.8721   -4.3719 C.2       5 UNK         0.5014 
     38 O          28.5636    3.7962   -3.7055 O.2       5 UNK        -0.5248 
     39 N          28.1506    2.8216   -5.7027 N.am      6 UNK        -0.4434 
     40 CA         28.8326    3.7502   -6.5947 C.3       6 UNK         0.0363 
     41 CB         27.9237    4.9631   -6.8877 C.3       6 UNK        -0.1936 
     42 C          29.2614    2.9645   -7.8442 C.2       6 UNK         0.5081 
     43 O          29.6272    1.7918   -7.7244 O.2       6 UNK        -0.5248 
     44 N          29.1927    3.5907   -9.0274 N.am      7 UNK        -0.4718 
     45 CA         29.5658    2.9970  -10.3181 C.3       7 UNK         0.0273 
     46 CB         29.4133    4.0474  -11.4292 C.3       7 UNK        -0.1935 
     47 C          28.7814    1.7200  -10.6706 C.2       7 UNK         0.5018 
     48 O          29.3568    0.8043  -11.2573 O.2       7 UNK        -0.5186 
     49 N          27.5104    1.6518  -10.2482 N.am      8 UNK        -0.4240 
     50 CA         26.6405    0.4766  -10.3727 C.3       8 UNK         0.0235 
     51 CB         25.2184    0.8583   -9.9342 C.3       8 UNK        -0.2000 
     52 C          27.1351   -0.7496   -9.5808 C.2       8 UNK         0.4941 
     53 O          26.8734   -1.8791   -9.9943 O.2       8 UNK        -0.5273 
     54 N          27.8583   -0.5085   -8.4799 N.am      9 UNK        -0.4262 
     55 CA         28.5160   -1.5259   -7.6612 C.3       9 UNK         0.0264 
     56 CB         28.4207   -1.1048   -6.1863 C.3       9 UNK        -0.1955 
     57 C          29.9895   -1.7317   -8.0444 C.2       9 UNK         0.5031 
     58 O          30.6455   -2.5550   -7.4037 O.2       9 UNK        -0.5390 
     59 N          30.4859   -0.9773   -9.0385 N.am      10 UNK        -0.4204 
     60 CA         31.8870   -0.8656   -9.4563 C.3       10 UNK         0.0237 
     61 CB         32.3699   -2.1800  -10.1068 C.3       10 UNK        -0.1985 
     62 C          32.8011   -0.3817   -8.3117 C.2       10 UNK         0.4970 
     63 O          33.9161   -0.8870   -8.1655 O.2       10 UNK        -0.4914 
     64 N          32.3051    0.5727   -7.5133 N.am      11 UNK        -0.4285 
     65 CA         32.9534    1.0681   -6.2947 C.3       11 UNK         0.1007 
     66 C          32.8331    2.6105   -6.1501 C.2       11 UNK         0.5703 
     67 N          33.2227    3.1643   -5.0102 N.am      11 UNK        -0.7361 
     68 O          32.4271    3.3204   -7.0679 O.2       11 UNK        -0.4986 
     69 C69        32.4681    0.2669   -5.0500 C.3       12 UNK        -0.0947 
     70 S70        33.8122   -0.0241   -3.8536 S.3       12 UNK        -0.2240 
     71 C71        33.0209    0.4373   -2.2777 C.3       12 UNK         0.0194 
     72 H72        29.0319   -4.7212   -9.3752 H         1 UNK         0.0906 
     73 H73        30.6894   -4.8624   -8.7723 H         1 UNK         0.0906 
     74 H74        29.9030   -6.2514   -9.5136 H         1 UNK         0.0906 
     75 H75        29.9838   -4.1626   -6.6281 H         1 UNK         0.3140 
     76 H76        29.2169   -6.3126   -4.8856 H         1 UNK         0.1085 
     77 H77        30.7739   -4.2641   -4.3802 H         1 UNK         0.0836 
     78 H78        29.3154   -3.3791   -4.0216 H         1 UNK         0.0836 
     79 H79        32.0462   -4.4947   -2.1889 H         1 UNK         0.0731 
     80 H80        31.2841   -4.6298   -0.6246 H         1 UNK         0.0731 
     81 H81        32.8988   -2.3098   -2.3929 H         1 UNK         0.1312 
     82 H82        30.6517    1.1217   -1.1609 H         1 UNK         0.1406 
     83 H83        29.0195   -2.8087   -0.6373 H         1 UNK         0.1631 
     84 H84        28.7105    0.7461    0.3350 H         1 UNK         0.0717 
     85 H85        28.0969   -0.8630    0.5881 H         1 UNK         0.0717 
     86 H86        27.0604    2.5137   -1.6789 H         1 UNK         0.0934 
     87 H87        28.6604    1.8739   -1.9117 H         1 UNK         0.0934 
     88 H88        27.8696    0.7787   -4.0610 H         1 UNK         0.0739 
     89 H89        25.3395    1.6221   -3.2045 H         1 UNK         0.3093 
     90 H90        23.4453    1.9355   -4.5519 H         1 UNK         0.0818 
     91 H91        23.5580    2.2746   -7.0461 H         1 UNK         0.0819 
     92 H92        23.5946    0.5305   -7.2750 H         1 UNK         0.0819 
     93 H93        22.1778    1.3001   -6.5659 H         1 UNK         0.0819 
     94 H94        23.4636   -0.9013   -5.3600 H         1 UNK         0.3041 
     95 H95        23.9133   -2.1881   -2.1542 H         1 UNK         0.0784 
     96 H96        21.4670   -1.7142   -1.9589 H         1 UNK         0.0793 
     97 H97        21.2245   -2.1797   -3.6367 H         1 UNK         0.0793 
     98 H98        21.7484   -3.3756   -2.4493 H         1 UNK         0.0793 
     99 H99        23.1424   -3.4064   -4.6315 H         1 UNK         0.3024 
    100 H100       24.8444   -4.7775   -5.6211 H         1 UNK         0.1171 
    101 H101       23.9837   -2.9375   -7.0422 H         1 UNK         0.0786 
    102 H102       25.5498   -2.1443   -7.0561 H         1 UNK         0.0786 
    103 H103       25.3319   -3.6913   -7.8708 H         1 UNK         0.0786 
    104 H104       27.4357   -3.6661   -6.3526 H         1 UNK         0.2977 
    105 H105       27.6696    2.0474   -6.1577 H         1 UNK         0.3127 
    106 H106       29.7480    4.0985   -6.1118 H         1 UNK         0.0770 
    107 H107       28.4420    5.7184   -7.4794 H         1 UNK         0.0814 
    108 H108       27.6114    5.4511   -5.9643 H         1 UNK         0.0814 
    109 H109       27.0211    4.6714   -7.4264 H         1 UNK         0.0814 
    110 H110       28.8822    4.5515   -9.0438 H         1 UNK         0.2983 
    111 H111       30.6201    2.7185  -10.2532 H         1 UNK         0.0947 
    112 H112       29.7049    3.6367  -12.3971 H         1 UNK         0.0806 
    113 H113       30.0469    4.9152  -11.2451 H         1 UNK         0.0806 
    114 H114       28.3835    4.3952  -11.5198 H         1 UNK         0.0806 
    115 H115       27.1278    2.4530   -9.7675 H         1 UNK         0.3000 
    116 H116       26.6122    0.1921  -11.4267 H         1 UNK         0.0850 
    117 H117       25.2039    1.2202   -8.9060 H         1 UNK         0.0810 
    118 H118       24.5458    0.0011   -9.9898 H         1 UNK         0.0810 
    119 H119       24.8015    1.6385  -10.5712 H         1 UNK         0.0810 
    120 H120       28.0484    0.4524   -8.2208 H         1 UNK         0.3040 
    121 H121       28.0130   -2.4854   -7.7877 H         1 UNK         0.0766 
    122 H122       27.3858   -1.0428   -5.8545 H         1 UNK         0.0812 
    123 H123       28.8911   -0.1367   -6.0160 H         1 UNK         0.0812 
    124 H124       28.9208   -1.8167   -5.5338 H         1 UNK         0.0812 
    125 H125       29.8494   -0.3514   -9.5174 H         1 UNK         0.3205 
    126 H126       31.9172   -0.0872  -10.2201 H         1 UNK         0.0754 
    127 H127       33.3625   -2.0587  -10.5421 H         1 UNK         0.0769 
    128 H128       31.7013   -2.4944  -10.9082 H         1 UNK         0.0769 
    129 H129       32.4306   -2.9925   -9.3820 H         1 UNK         0.0769 
    130 H130       31.3925    0.9776   -7.7077 H         1 UNK         0.2981 
    131 H131       34.0259    0.9079   -6.4180 H         1 UNK         0.0541 
    132 H132       33.5879    2.5939   -4.2640 H         1 UNK         0.3459 
    133 H133       33.1684    4.1649   -4.9045 H         1 UNK         0.3459 
    134 H134       32.1071   -0.7209   -5.3429 H         1 UNK         0.0612 
    135 H135       31.6168    0.7539   -4.5704 H         1 UNK         0.0612 
    136 H136       32.6701    1.4678   -2.3536 H         1 UNK         0.0624 
    137 H137       33.7797    0.4264   -1.4945 H         1 UNK         0.0624 
@<TRIPOS>BOND
     1    1    2 1    
     2    1   72 1    
     3    1   73 1    
     4    1   74 1    
     5    2    3 2    
     6    2    4 am   BACKBONE|DICT|INTERRES
     7    4    5 1    
     8    4   75 1    
     9    5    6 1    
    10    5   35 1    
    11    5   76 1    
    12    6    7 1    
    13    6   77 1    
    14    6   78 1    
    15    7    8 1    
    16    8    9 1    
    17    8   79 1    
    18    8   80 1    
    19    9   10 ar   
    20    9   14 ar   
    21   10   11 ar   
    22   10   81 1    
    23   11   12 ar   
    24   11   71 1    
    25   12   13 ar   
    26   12   82 1    
    27   13   14 ar   
    28   13   15 1    
    29   14   83 1    
    30   15   16 1    
    31   15   84 1    
    32   15   85 1    
    33   16   17 1    
    34   17   18 1    
    35   17   86 1    
    36   17   87 1    
    37   18   19 1    
    38   18   37 1    
    39   18   88 1    
    40   19   20 am   BACKBONE|DICT|INTERRES
    41   19   89 1    
    42   20   21 2    
    43   20   22 1    
    44   22   23 1    
    45   22   24 1    
    46   22   90 1    
    47   23   91 1    
    48   23   92 1    
    49   23   93 1    
    50   24   25 am   BACKBONE|DICT|INTERRES
    51   24   94 1    
    52   25   26 2    
    53   25   27 1    
    54   27   28 1    
    55   27   29 1    
    56   27   95 1    
    57   28   96 1    
    58   28   97 1    
    59   28   98 1    
    60   29   30 am   BACKBONE|DICT|INTERRES
    61   29   99 1    
    62   30   31 2    
    63   30   32 1    
    64   32   33 1    
    65   32   34 1    
    66   32  100 1    
    67   33  101 1    
    68   33  102 1    
    69   33  103 1    
    70   34   35 am   BACKBONE|DICT|INTERRES
    71   34  104 1    
    72   35   36 2    
    73   37   38 2    
    74   37   39 am   BACKBONE|DICT|INTERRES
    75   39   40 1    
    76   39  105 1    
    77   40   41 1    
    78   40   42 1    
    79   40  106 1    
    80   41  107 1    
    81   41  108 1    
    82   41  109 1    
    83   42   43 2    
    84   42   44 am   BACKBONE|DICT|INTERRES
    85   44   45 1    
    86   44  110 1    
    87   45   46 1    
    88   45   47 1    
    89   45  111 1    
    90   46  112 1    
    91   46  113 1    
    92   46  114 1    
    93   47   48 2    
    94   47   49 am   BACKBONE|DICT|INTERRES
    95   49   50 1    
    96   49  115 1    
    97   50   51 1    
    98   50   52 1    
    99   50  116 1    
   100   51  117 1    
   101   51  118 1    
   102   51  119 1    
   103   52   53 2    
   104   52   54 am   BACKBONE|DICT|INTERRES
   105   54   55 1    
   106   54  120 1    
   107   55   56 1    
   108   55   57 1    
   109   55  121 1    
   110   56  122 1    
   111   56  123 1    
   112   56  124 1    
   113   57   58 2    
   114   57   59 am   BACKBONE|DICT|INTERRES
   115   59   60 1    
   116   59  125 1    
   117   60   61 1    
   118   60   62 1    
   119   60  126 1    
   120   61  127 1    
   121   61  128 1    
   122   61  129 1    
   123   62   63 2    
   124   62   64 am   BACKBONE|DICT|INTERRES
   125   64   65 1    
   126   64  130 1    
   127   65   66 1    
   128   65   69 1    
   129   65  131 1    
   130   66   67 am   BACKBONE|DICT|INTERRES
   131   66   68 2    
   132   67  132 1    
   133   67  133 1    
   134   69   70 1    
   135   69  134 1    
   136   69  135 1    
   137   70   71 1    
   138   71  136 1    
   139   71  137 1    
@<TRIPOS>SUBSTRUCTURE
     1 UNK         1 GROUP             0       ****    0 ROOT    
