@<TRIPOS>MOLECULE
3R137
137   139    1
SMALL
USER_CHARGES


@<TRIPOS>ATOM
      1 CA         31.6366   -0.1352   -0.9854 C.3       0 UNK        -0.2020 
      2 C          30.4373   -1.0269   -0.6999 C.2       0 UNK         0.4855 
      3 O          29.9096   -1.0030    0.4115 O.2       0 UNK        -0.5197 
      4 N          29.9994   -1.7983   -1.7047 N.am      1 UNK        -0.4892 
      5 CA         28.8985   -2.7801   -1.6626 C.3       1 UNK         0.0835 
      6 C6         29.0974   -3.9353   -0.6329 C.3       12 UNK        -0.0855 
      7 S7         30.7650   -4.6860   -0.6012 S.3       12 UNK        -0.2931 
      8 C8         30.6869   -5.8964   -1.9652 C.3       12 UNK         0.0378 
      9 C9         30.6314   -5.2292   -3.3343 C.ar      12 UNK        -0.0802 
     10 C10        31.5446   -4.2232   -3.6683 C.ar      12 UNK        -0.0944 
     11 C11        31.4638   -3.5663   -4.8973 C.ar      12 UNK        -0.0787 
     12 C12        30.4752   -3.9411   -5.8107 C.ar      12 UNK        -0.0862 
     13 C13        29.5746   -4.9662   -5.5050 C.ar      12 UNK        -0.0733 
     14 C14        29.6591   -5.6091   -4.2655 C.ar      12 UNK        -0.0832 
     15 C15        28.5047   -5.3645   -6.5151 C.3       12 UNK         0.0240 
     16 S16        26.8056   -5.1140   -5.8986 S.3       12 UNK        -0.2522 
     17 C17        26.8342   -3.3597   -5.4120 C.3       12 UNK        -0.0967 
     18 CA         26.5800   -2.3998   -6.6079 C.3       5 UNK         0.0660 
     19 N          25.2126   -1.8688   -6.6122 N.am      5 UNK        -0.4015 
     20 C          24.6738   -1.1408   -7.6018 C.2       4 UNK         0.4946 
     21 O          25.2562   -0.8755   -8.6511 O.2       4 UNK        -0.5353 
     22 CA         23.2576   -0.5822   -7.3870 C.3       4 UNK         0.0277 
     23 CB         22.2074   -1.5543   -7.9474 C.3       4 UNK        -0.1981 
     24 N          22.9500   -0.2828   -5.9880 N.am      4 UNK        -0.4209 
     25 C          23.5680    0.6436   -5.2416 C.2       3 UNK         0.4942 
     26 O          24.4626    1.3775   -5.6684 O.2       3 UNK        -0.5208 
     27 CA         23.1245    0.7609   -3.7661 C.3       3 UNK         0.0250 
     28 CB         22.0835   -0.2988   -3.3351 C.3       3 UNK        -0.1990 
     29 N          24.2418    0.7527   -2.8120 N.am      3 UNK        -0.4232 
     30 C          25.2646   -0.1144   -2.7590 C.2       2 UNK         0.4993 
     31 O          25.4821   -0.9743   -3.6157 O.2       2 UNK        -0.5286 
     32 CA         26.2158    0.0500   -1.5574 C.3       2 UNK         0.0209 
     33 CB         25.4795   -0.1423   -0.2132 C.3       2 UNK        -0.1931 
     34 N          27.4080   -0.8093   -1.6299 N.am      2 UNK        -0.4546 
     35 C          27.4909   -2.1463   -1.5309 C.2       1 UNK         0.5154 
     36 O          26.5204   -2.8830   -1.3454 O.2       1 UNK        -0.5181 
     37 C          27.6112   -1.2569   -6.6307 C.2       5 UNK         0.5014 
     38 O          28.4884   -1.2440   -7.4972 O.2       5 UNK        -0.5248 
     39 N          27.4509   -0.3030   -5.7012 N.am      6 UNK        -0.4434 
     40 CA         28.2678    0.9084   -5.6028 C.3       6 UNK         0.0363 
     41 CB         27.8833    1.7095   -4.3513 C.3       6 UNK        -0.1936 
     42 C          28.1886    1.7975   -6.8495 C.2       6 UNK         0.5081 
     43 O          29.2109    2.3547   -7.2473 O.2       6 UNK        -0.5248 
     44 N          26.9925    1.9023   -7.4435 N.am      7 UNK        -0.4718 
     45 CA         26.7549    2.6364   -8.6854 C.3       7 UNK         0.0273 
     46 CB         25.2436    2.8174   -8.8993 C.3       7 UNK        -0.1935 
     47 C          27.4078    1.9633   -9.9045 C.2       7 UNK         0.5018 
     48 O          28.0915    2.6442  -10.6692 O.2       7 UNK        -0.5186 
     49 N          27.1889    0.6499  -10.0669 N.am      8 UNK        -0.4240 
     50 CA         27.6717   -0.1364  -11.2051 C.3       8 UNK         0.0235 
     51 CB         26.9812   -1.5099  -11.2256 C.3       8 UNK        -0.2000 
     52 C          29.1967   -0.3046  -11.2272 C.2       8 UNK         0.4941 
     53 O          29.8053   -0.1211  -12.2823 O.2       8 UNK        -0.5273 
     54 N          29.7877   -0.6525  -10.0759 N.am      9 UNK        -0.4262 
     55 CA         31.2311   -0.8744   -9.9457 C.3       9 UNK         0.0264 
     56 CB         31.4803   -1.8748   -8.8101 C.3       9 UNK        -0.1955 
     57 C          32.0288    0.4177   -9.7029 C.2       9 UNK         0.5031 
     58 O          33.2575    0.3761   -9.7755 O.2       9 UNK        -0.5390 
     59 N          31.3330    1.5209   -9.3878 N.am      10 UNK        -0.4204 
     60 CA         31.8640    2.8372   -9.0102 C.3       10 UNK         0.0237 
     61 CB         32.6842    3.4649  -10.1582 C.3       10 UNK        -0.1985 
     62 C          32.6203    2.8401   -7.6639 C.2       10 UNK         0.4970 
     63 O          33.3723    3.7801   -7.3999 O.2       10 UNK        -0.4914 
     64 N          32.4013    1.8139   -6.8285 N.am      11 UNK        -0.4285 
     65 CA         32.9610    1.7004   -5.4733 C.3       11 UNK         0.1007 
     66 C          32.1889    2.5072   -4.3888 C.2       11 UNK         0.5703 
     67 N          31.0629    3.1368   -4.7044 N.am      11 UNK        -0.7361 
     68 O          32.6328    2.5816   -3.2457 O.2       11 UNK        -0.4986 
     69 C69        33.2162    0.2233   -5.0687 C.3       12 UNK        -0.0947 
     70 S70        31.7211   -0.8155   -4.9372 S.3       12 UNK        -0.2240 
     71 C71        32.4473   -2.4562   -5.2312 C.3       12 UNK         0.0194 
     72 H72        31.3358    0.9122   -0.9927 H         1 UNK         0.0906 
     73 H73        32.3944   -0.2670   -0.2136 H         1 UNK         0.0906 
     74 H74        32.0961   -0.3618   -1.9469 H         1 UNK         0.0906 
     75 H75        30.4856   -1.7575   -2.5909 H         1 UNK         0.3140 
     76 H76        28.8909   -3.2333   -2.6534 H         1 UNK         0.1085 
     77 H77        28.8946   -3.5698    0.3754 H         1 UNK         0.0836 
     78 H78        28.3696   -4.7295   -0.8099 H         1 UNK         0.0836 
     79 H79        31.5738   -6.5299   -1.9232 H         1 UNK         0.0731 
     80 H80        29.8294   -6.5533   -1.8110 H         1 UNK         0.0731 
     81 H81        32.3047   -3.9331   -2.9554 H         1 UNK         0.1312 
     82 H82        30.4014   -3.4288   -6.7581 H         1 UNK         0.1406 
     83 H83        28.9524   -6.3915   -4.0232 H         1 UNK         0.1631 
     84 H84        28.6230   -4.8052   -7.4446 H         1 UNK         0.0717 
     85 H85        28.6340   -6.4164   -6.7733 H         1 UNK         0.0717 
     86 H86        26.0771   -3.2330   -4.6375 H         1 UNK         0.0934 
     87 H87        27.7744   -3.1519   -4.8994 H         1 UNK         0.0934 
     88 H88        26.7123   -2.9454   -7.5449 H         1 UNK         0.0739 
     89 H89        24.6863   -1.9838   -5.7576 H         1 UNK         0.3093 
     90 H90        23.1866    0.3528   -7.9460 H         1 UNK         0.0818 
     91 H91        21.2036   -1.1333   -7.8875 H         1 UNK         0.0819 
     92 H92        22.4019   -1.7730   -8.9986 H         1 UNK         0.0819 
     93 H93        22.2074   -2.5046   -7.4120 H         1 UNK         0.0819 
     94 H94        22.2270   -0.8376   -5.5530 H         1 UNK         0.3041 
     95 H95        22.6537    1.7411   -3.6779 H         1 UNK         0.0784 
     96 H96        21.1771   -0.2439   -3.9396 H         1 UNK         0.0793 
     97 H97        22.4800   -1.3128   -3.4058 H         1 UNK         0.0793 
     98 H98        21.7762   -0.1428   -2.3008 H         1 UNK         0.0793 
     99 H99        24.1927    1.4657   -2.0979 H         1 UNK         0.3024 
    100 H100       26.5850    1.0763   -1.5879 H         1 UNK         0.1171 
    101 H101       24.7226    0.6272   -0.0590 H         1 UNK         0.0786 
    102 H102       24.9722   -1.1062   -0.1605 H         1 UNK         0.0786 
    103 H103       26.1702   -0.0824    0.6282 H         1 UNK         0.0786 
    104 H104       28.2821   -0.3269   -1.7789 H         1 UNK         0.2977 
    105 H105       26.6932   -0.4111   -5.0311 H         1 UNK         0.3127 
    106 H106       29.3075    0.5987   -5.5007 H         1 UNK         0.0770 
    107 H107       26.8122    1.9079   -4.3111 H         1 UNK         0.0814 
    108 H108       28.3848    2.6768   -4.3289 H         1 UNK         0.0814 
    109 H109       28.1766    1.1811   -3.4471 H         1 UNK         0.0814 
    110 H110       26.1947    1.4520   -7.0090 H         1 UNK         0.2983 
    111 H111       27.2010    3.6277   -8.5769 H         1 UNK         0.0947 
    112 H112       25.0459    3.4172   -9.7887 H         1 UNK         0.0806 
    113 H113       24.7811    3.3270   -8.0537 H         1 UNK         0.0806 
    114 H114       24.7358    1.8623   -9.0320 H         1 UNK         0.0806 
    115 H115       26.5871    0.1614   -9.4054 H         1 UNK         0.3000 
    116 H116       27.3875    0.3945  -12.1164 H         1 UNK         0.0850 
    117 H117       27.3247   -2.1099  -12.0694 H         1 UNK         0.0810 
    118 H118       25.9000   -1.4072  -11.3204 H         1 UNK         0.0810 
    119 H119       27.1834   -2.0767  -10.3156 H         1 UNK         0.0810 
    120 H120       29.2210   -0.8025   -9.2426 H         1 UNK         0.3040 
    121 H121       31.6095   -1.3192  -10.8687 H         1 UNK         0.0766 
    122 H122       30.9582   -2.8143   -8.9907 H         1 UNK         0.0812 
    123 H123       31.1447   -1.4761   -7.8531 H         1 UNK         0.0812 
    124 H124       32.5422   -2.1060   -8.7166 H         1 UNK         0.0812 
    125 H125       30.3260    1.4386   -9.3343 H         1 UNK         0.3205 
    126 H126       30.9912    3.4736   -8.8589 H         1 UNK         0.0754 
    127 H127       32.9239    4.5069   -9.9432 H         1 UNK         0.0769 
    128 H128       32.1285    3.4496  -11.0959 H         1 UNK         0.0769 
    129 H129       33.6281    2.9431  -10.3175 H         1 UNK         0.0769 
    130 H130       31.7371    1.1036   -7.0956 H         1 UNK         0.2981 
    131 H131       33.9479    2.1661   -5.5001 H         1 UNK         0.0541 
    132 H132       30.6805    3.0699   -5.6371 H         1 UNK         0.3459 
    133 H133       30.5902    3.6760   -3.9978 H         1 UNK         0.3459 
    134 H134       33.7452    0.1776   -4.1151 H         1 UNK         0.0612 
    135 H135       33.8891   -0.2299   -5.7985 H         1 UNK         0.0612 
    136 H136       33.3494   -2.5613   -4.6262 H         1 UNK         0.0624 
    137 H137       32.7655   -2.5373   -6.2705 H         1 UNK         0.0624 
@<TRIPOS>BOND
     1    1    2 1    
     2    1   72 1    
     3    1   73 1    
     4    1   74 1    
     5    2    3 2    
     6    2    4 am   BACKBONE|DICT|INTERRES
     7    4    5 1    
     8    4   75 1    
     9    5    6 1    
    10    5   35 1    
    11    5   76 1    
    12    6    7 1    
    13    6   77 1    
    14    6   78 1    
    15    7    8 1    
    16    8    9 1    
    17    8   79 1    
    18    8   80 1    
    19    9   10 ar   
    20    9   14 ar   
    21   10   11 ar   
    22   10   81 1    
    23   11   12 ar   
    24   11   71 1    
    25   12   13 ar   
    26   12   82 1    
    27   13   14 ar   
    28   13   15 1    
    29   14   83 1    
    30   15   16 1    
    31   15   84 1    
    32   15   85 1    
    33   16   17 1    
    34   17   18 1    
    35   17   86 1    
    36   17   87 1    
    37   18   19 1    
    38   18   37 1    
    39   18   88 1    
    40   19   20 am   BACKBONE|DICT|INTERRES
    41   19   89 1    
    42   20   21 2    
    43   20   22 1    
    44   22   23 1    
    45   22   24 1    
    46   22   90 1    
    47   23   91 1    
    48   23   92 1    
    49   23   93 1    
    50   24   25 am   BACKBONE|DICT|INTERRES
    51   24   94 1    
    52   25   26 2    
    53   25   27 1    
    54   27   28 1    
    55   27   29 1    
    56   27   95 1    
    57   28   96 1    
    58   28   97 1    
    59   28   98 1    
    60   29   30 am   BACKBONE|DICT|INTERRES
    61   29   99 1    
    62   30   31 2    
    63   30   32 1    
    64   32   33 1    
    65   32   34 1    
    66   32  100 1    
    67   33  101 1    
    68   33  102 1    
    69   33  103 1    
    70   34   35 am   BACKBONE|DICT|INTERRES
    71   34  104 1    
    72   35   36 2    
    73   37   38 2    
    74   37   39 am   BACKBONE|DICT|INTERRES
    75   39   40 1    
    76   39  105 1    
    77   40   41 1    
    78   40   42 1    
    79   40  106 1    
    80   41  107 1    
    81   41  108 1    
    82   41  109 1    
    83   42   43 2    
    84   42   44 am   BACKBONE|DICT|INTERRES
    85   44   45 1    
    86   44  110 1    
    87   45   46 1    
    88   45   47 1    
    89   45  111 1    
    90   46  112 1    
    91   46  113 1    
    92   46  114 1    
    93   47   48 2    
    94   47   49 am   BACKBONE|DICT|INTERRES
    95   49   50 1    
    96   49  115 1    
    97   50   51 1    
    98   50   52 1    
    99   50  116 1    
   100   51  117 1    
   101   51  118 1    
   102   51  119 1    
   103   52   53 2    
   104   52   54 am   BACKBONE|DICT|INTERRES
   105   54   55 1    
   106   54  120 1    
   107   55   56 1    
   108   55   57 1    
   109   55  121 1    
   110   56  122 1    
   111   56  123 1    
   112   56  124 1    
   113   57   58 2    
   114   57   59 am   BACKBONE|DICT|INTERRES
   115   59   60 1    
   116   59  125 1    
   117   60   61 1    
   118   60   62 1    
   119   60  126 1    
   120   61  127 1    
   121   61  128 1    
   122   61  129 1    
   123   62   63 2    
   124   62   64 am   BACKBONE|DICT|INTERRES
   125   64   65 1    
   126   64  130 1    
   127   65   66 1    
   128   65   69 1    
   129   65  131 1    
   130   66   67 am   BACKBONE|DICT|INTERRES
   131   66   68 2    
   132   67  132 1    
   133   67  133 1    
   134   69   70 1    
   135   69  134 1    
   136   69  135 1    
   137   70   71 1    
   138   71  136 1    
   139   71  137 1    
@<TRIPOS>SUBSTRUCTURE
     1 UNK         1 GROUP             0       ****    0 ROOT    
