@<TRIPOS>MOLECULE
3R137
137   139    1
SMALL
USER_CHARGES


@<TRIPOS>ATOM
      1 CA         22.9050   -4.3823   -6.5297 C.3       0 UNK        -0.2020 
      2 C          23.4320   -2.9510   -6.5715 C.2       0 UNK         0.4855 
      3 O          22.7260   -2.0712   -7.0578 O.2       0 UNK        -0.5197 
      4 N          24.6475   -2.6654   -6.0841 N.am      1 UNK        -0.4892 
      5 CA         25.5941   -3.5927   -5.4637 C.3       1 UNK         0.0835 
      6 C6         27.0260   -3.3982   -6.0281 C.3       12 UNK        -0.0855 
      7 S7         27.9636   -4.9627   -6.0719 S.3       12 UNK        -0.2931 
      8 C8         28.7858   -4.9847   -4.4440 C.3       12 UNK         0.0378 
      9 C9         29.7835   -3.8481   -4.2691 C.ar      12 UNK        -0.0802 
     10 C10        30.8901   -3.7457   -5.1184 C.ar      12 UNK        -0.0944 
     11 C11        31.8116   -2.7058   -4.9674 C.ar      12 UNK        -0.0787 
     12 C12        31.6163   -1.7661   -3.9480 C.ar      12 UNK        -0.0862 
     13 C13        30.5374   -1.8783   -3.0675 C.ar      12 UNK        -0.0733 
     14 C14        29.6156   -2.9148   -3.2406 C.ar      12 UNK        -0.0832 
     15 C15        30.4033   -0.9064   -1.9019 C.3       12 UNK         0.0240 
     16 S16        28.9123    0.1301   -2.0007 S.3       12 UNK        -0.2522 
     17 C17        29.1859    1.0589   -3.5496 C.3       12 UNK        -0.0967 
     18 CA         28.1240    0.7081   -4.6186 C.3       5 UNK         0.0660 
     19 N          26.7627    0.9067   -4.1036 N.am      5 UNK        -0.4015 
     20 C          25.6203    0.5633   -4.7107 C.2       4 UNK         0.4946 
     21 O          25.5585    0.0943   -5.8496 O.2       4 UNK        -0.5353 
     22 CA         24.3528    0.7565   -3.8697 C.3       4 UNK         0.0277 
     23 CB         23.0536    0.3812   -4.6061 C.3       4 UNK        -0.1981 
     24 N          24.4832   -0.0274   -2.6430 N.am      4 UNK        -0.4209 
     25 C          23.8973    0.2592   -1.4731 C.2       3 UNK         0.4942 
     26 O          23.1795    1.2465   -1.3029 O.2       3 UNK        -0.5208 
     27 CA         24.1749   -0.6887   -0.2843 C.3       3 UNK         0.0250 
     28 CB         22.9968   -0.7540    0.7122 C.3       3 UNK        -0.1990 
     29 N          24.6093   -2.0365   -0.6783 N.am      3 UNK        -0.4232 
     30 C          23.9092   -2.9488   -1.3694 C.2       2 UNK         0.4993 
     31 O          22.7407   -2.8075   -1.7352 O.2       2 UNK        -0.5286 
     32 CA         24.6743   -4.2237   -1.7698 C.3       2 UNK         0.0209 
     33 CB         23.9333   -5.4876   -1.3009 C.3       2 UNK        -0.1931 
     34 N          24.8823   -4.2937   -3.2198 N.am      2 UNK        -0.4546 
     35 C          25.5371   -3.3739   -3.9429 C.2       1 UNK         0.5154 
     36 O          26.0641   -2.3734   -3.4510 O.2       1 UNK        -0.5181 
     37 C          28.4070    1.4657   -5.9321 C.2       5 UNK         0.5014 
     38 O          29.3066    1.0710   -6.6762 O.2       5 UNK        -0.5248 
     39 N          27.6232    2.5156   -6.2199 N.am      6 UNK        -0.4434 
     40 CA         27.6417    3.2693   -7.4753 C.3       6 UNK         0.0363 
     41 CB         26.6790    4.4618   -7.3678 C.3       6 UNK        -0.1936 
     42 C          27.3024    2.4150   -8.7106 C.2       6 UNK         0.5081 
     43 O          27.8124    2.7062   -9.7918 O.2       6 UNK        -0.5248 
     44 N          26.5099    1.3451   -8.5349 N.am      7 UNK        -0.4718 
     45 CA         26.2108    0.3640   -9.5859 C.3       7 UNK         0.0273 
     46 CB         25.0688   -0.5493   -9.1205 C.3       7 UNK        -0.1935 
     47 C          27.4347   -0.4789   -9.9923 C.2       7 UNK         0.5018 
     48 O          27.4761   -0.9773  -11.1171 O.2       7 UNK        -0.5186 
     49 N          28.4135   -0.5940   -9.0851 N.am      8 UNK        -0.4240 
     50 CA         29.7215   -1.2072   -9.3125 C.3       8 UNK         0.0235 
     51 CB         30.0203   -2.1653   -8.1468 C.3       8 UNK        -0.2000 
     52 C          30.8230   -0.1391   -9.4615 C.2       8 UNK         0.4941 
     53 O          32.0015   -0.4724   -9.3287 O.2       8 UNK        -0.5273 
     54 N          30.4334    1.1268   -9.6960 N.am      9 UNK        -0.4262 
     55 CA         31.2819    2.3146   -9.8625 C.3       9 UNK         0.0264 
     56 CB         32.0146    2.2530  -11.2194 C.3       9 UNK        -0.1955 
     57 C          32.2458    2.5650   -8.6846 C.2       9 UNK         0.5031 
     58 O          33.3631    3.0382   -8.9045 O.2       9 UNK        -0.5390 
     59 N          31.8266    2.1910   -7.4636 N.am      10 UNK        -0.4204 
     60 CA         32.6221    2.1798   -6.2266 C.3       10 UNK         0.0237 
     61 CB         32.8801    3.6187   -5.7335 C.3       10 UNK        -0.1985 
     62 C          33.9145    1.3386   -6.3368 C.2       10 UNK         0.4970 
     63 O          34.9071    1.6474   -5.6757 O.2       10 UNK        -0.4914 
     64 N          33.8667    0.3006   -7.1822 N.am      11 UNK        -0.4285 
     65 CA         34.9573   -0.6108   -7.5580 C.3       11 UNK         0.1007 
     66 C          36.0050    0.0272   -8.5208 C.2       11 UNK         0.5703 
     67 N          35.7697    1.2066   -9.0871 N.am      11 UNK        -0.7361 
     68 O          37.0444   -0.5719   -8.7877 O.2       11 UNK        -0.4986 
     69 C69        35.6240   -1.3522   -6.3582 C.3       12 UNK        -0.0947 
     70 S70        34.5444   -2.1230   -5.0931 S.3       12 UNK        -0.2240 
     71 C71        32.9863   -2.5841   -5.9340 C.3       12 UNK         0.0194 
     72 H72        22.8727   -4.7584   -5.5079 H         1 UNK         0.0906 
     73 H73        21.8908   -4.4259   -6.9268 H         1 UNK         0.0906 
     74 H74        23.5241   -5.0425   -7.1368 H         1 UNK         0.0906 
     75 H75        24.9445   -1.6908   -6.0704 H         1 UNK         0.3140 
     76 H76        25.2989   -4.6212   -5.6718 H         1 UNK         0.1085 
     77 H77        27.5899   -2.6208   -5.5097 H         1 UNK         0.0836 
     78 H78        26.9675   -3.0574   -7.0633 H         1 UNK         0.0836 
     79 H79        29.3143   -5.9327   -4.3344 H         1 UNK         0.0731 
     80 H80        28.0301   -4.9680   -3.6578 H         1 UNK         0.0731 
     81 H81        31.0207   -4.4708   -5.9103 H         1 UNK         0.1312 
     82 H82        32.3206   -0.9551   -3.8250 H         1 UNK         0.1406 
     83 H83        28.7711   -2.9930   -2.5688 H         1 UNK         0.1631 
     84 H84        31.2784   -0.2585   -1.8298 H         1 UNK         0.0717 
     85 H85        30.3707   -1.4751   -0.9716 H         1 UNK         0.0717 
     86 H86        29.1623    2.1251   -3.3153 H         1 UNK         0.0934 
     87 H87        30.1903    0.8552   -3.9247 H         1 UNK         0.0934 
     88 H88        28.2206   -0.3547   -4.8506 H         1 UNK         0.0739 
     89 H89        26.7111    1.2440   -3.1530 H         1 UNK         0.3093 
     90 H90        24.3070    1.8188   -3.6204 H         1 UNK         0.0818 
     91 H91        23.0021    0.8466   -5.5914 H         1 UNK         0.0819 
     92 H92        22.9721   -0.6958   -4.7425 H         1 UNK         0.0819 
     93 H93        22.1768    0.7078   -4.0472 H         1 UNK         0.0819 
     94 H94        25.0732   -0.8543   -2.7174 H         1 UNK         0.3041 
     95 H95        25.0216   -0.2490    0.2450 H         1 UNK         0.0784 
     96 H96        22.7820    0.2300    1.1309 H         1 UNK         0.0793 
     97 H97        22.0822   -1.1089    0.2362 H         1 UNK         0.0793 
     98 H98        23.2196   -1.4169    1.5482 H         1 UNK         0.0793 
     99 H99        25.5748   -2.2483   -0.4655 H         1 UNK         0.3024 
    100 H100       25.6573   -4.2131   -1.2934 H         1 UNK         0.1171 
    101 H101       22.9563   -5.5845   -1.7764 H         1 UNK         0.0786 
    102 H102       24.5052   -6.3893   -1.5211 H         1 UNK         0.0786 
    103 H103       23.7691   -5.4648   -0.2226 H         1 UNK         0.0786 
    104 H104       24.4560   -5.0780   -3.6906 H         1 UNK         0.2977 
    105 H105       26.9150    2.7743   -5.5490 H         1 UNK         0.3127 
    106 H106       28.6540    3.6554   -7.6136 H         1 UNK         0.0770 
    107 H107       25.6502    4.1379   -7.2053 H         1 UNK         0.0814 
    108 H108       26.6922    5.0565   -8.2825 H         1 UNK         0.0814 
    109 H109       26.9575    5.1257   -6.5492 H         1 UNK         0.0814 
    110 H110       26.1453    1.1418   -7.6095 H         1 UNK         0.2983 
    111 H111       25.8764    0.9086  -10.4717 H         1 UNK         0.0947 
    112 H112       24.7588   -1.2265   -9.9173 H         1 UNK         0.0806 
    113 H113       24.1909    0.0228   -8.8195 H         1 UNK         0.0806 
    114 H114       25.3740   -1.1635   -8.2745 H         1 UNK         0.0806 
    115 H115       28.3073   -0.1149   -8.1987 H         1 UNK         0.3000 
    116 H116       29.7145   -1.7874  -10.2373 H         1 UNK         0.0850 
    117 H117       29.2540   -2.9348   -8.0622 H         1 UNK         0.0810 
    118 H118       30.0716   -1.6370   -7.1937 H         1 UNK         0.0810 
    119 H119       30.9704   -2.6801   -8.2919 H         1 UNK         0.0810 
    120 H120       29.4392    1.3085   -9.7718 H         1 UNK         0.3040 
    121 H121       30.6080    3.1721   -9.8871 H         1 UNK         0.0766 
    122 H122       32.7465    1.4448  -11.2448 H         1 UNK         0.0812 
    123 H123       31.3154    2.0989  -12.0412 H         1 UNK         0.0812 
    124 H124       32.5484    3.1825  -11.4214 H         1 UNK         0.0812 
    125 H125       30.8963    1.7834   -7.3770 H         1 UNK         0.3205 
    126 H126       32.0062    1.6797   -5.4782 H         1 UNK         0.0754 
    127 H127       33.3519    3.6182   -4.7501 H         1 UNK         0.0769 
    128 H128       31.9495    4.1791   -5.6442 H         1 UNK         0.0769 
    129 H129       33.5379    4.1653   -6.4101 H         1 UNK         0.0769 
    130 H130       33.0253    0.1711   -7.7349 H         1 UNK         0.2981 
    131 H131       34.4772   -1.3745   -8.1699 H         1 UNK         0.0541 
    132 H132       36.4567    1.5929   -9.7141 H         1 UNK         0.3459 
    133 H133       34.9180    1.7232   -8.8962 H         1 UNK         0.3459 
    134 H134       36.2890   -0.6684   -5.8284 H         1 UNK         0.0612 
    135 H135       36.2693   -2.1460   -6.7381 H         1 UNK         0.0612 
    136 H136       32.6967   -1.8595   -6.6881 H         1 UNK         0.0624 
    137 H137       33.1511   -3.5245   -6.4617 H         1 UNK         0.0624 
@<TRIPOS>BOND
     1    1    2 1    
     2    1   72 1    
     3    1   73 1    
     4    1   74 1    
     5    2    3 2    
     6    2    4 am   BACKBONE|DICT|INTERRES
     7    4    5 1    
     8    4   75 1    
     9    5    6 1    
    10    5   35 1    
    11    5   76 1    
    12    6    7 1    
    13    6   77 1    
    14    6   78 1    
    15    7    8 1    
    16    8    9 1    
    17    8   79 1    
    18    8   80 1    
    19    9   10 ar   
    20    9   14 ar   
    21   10   11 ar   
    22   10   81 1    
    23   11   12 ar   
    24   11   71 1    
    25   12   13 ar   
    26   12   82 1    
    27   13   14 ar   
    28   13   15 1    
    29   14   83 1    
    30   15   16 1    
    31   15   84 1    
    32   15   85 1    
    33   16   17 1    
    34   17   18 1    
    35   17   86 1    
    36   17   87 1    
    37   18   19 1    
    38   18   37 1    
    39   18   88 1    
    40   19   20 am   BACKBONE|DICT|INTERRES
    41   19   89 1    
    42   20   21 2    
    43   20   22 1    
    44   22   23 1    
    45   22   24 1    
    46   22   90 1    
    47   23   91 1    
    48   23   92 1    
    49   23   93 1    
    50   24   25 am   BACKBONE|DICT|INTERRES
    51   24   94 1    
    52   25   26 2    
    53   25   27 1    
    54   27   28 1    
    55   27   29 1    
    56   27   95 1    
    57   28   96 1    
    58   28   97 1    
    59   28   98 1    
    60   29   30 am   BACKBONE|DICT|INTERRES
    61   29   99 1    
    62   30   31 2    
    63   30   32 1    
    64   32   33 1    
    65   32   34 1    
    66   32  100 1    
    67   33  101 1    
    68   33  102 1    
    69   33  103 1    
    70   34   35 am   BACKBONE|DICT|INTERRES
    71   34  104 1    
    72   35   36 2    
    73   37   38 2    
    74   37   39 am   BACKBONE|DICT|INTERRES
    75   39   40 1    
    76   39  105 1    
    77   40   41 1    
    78   40   42 1    
    79   40  106 1    
    80   41  107 1    
    81   41  108 1    
    82   41  109 1    
    83   42   43 2    
    84   42   44 am   BACKBONE|DICT|INTERRES
    85   44   45 1    
    86   44  110 1    
    87   45   46 1    
    88   45   47 1    
    89   45  111 1    
    90   46  112 1    
    91   46  113 1    
    92   46  114 1    
    93   47   48 2    
    94   47   49 am   BACKBONE|DICT|INTERRES
    95   49   50 1    
    96   49  115 1    
    97   50   51 1    
    98   50   52 1    
    99   50  116 1    
   100   51  117 1    
   101   51  118 1    
   102   51  119 1    
   103   52   53 2    
   104   52   54 am   BACKBONE|DICT|INTERRES
   105   54   55 1    
   106   54  120 1    
   107   55   56 1    
   108   55   57 1    
   109   55  121 1    
   110   56  122 1    
   111   56  123 1    
   112   56  124 1    
   113   57   58 2    
   114   57   59 am   BACKBONE|DICT|INTERRES
   115   59   60 1    
   116   59  125 1    
   117   60   61 1    
   118   60   62 1    
   119   60  126 1    
   120   61  127 1    
   121   61  128 1    
   122   61  129 1    
   123   62   63 2    
   124   62   64 am   BACKBONE|DICT|INTERRES
   125   64   65 1    
   126   64  130 1    
   127   65   66 1    
   128   65   69 1    
   129   65  131 1    
   130   66   67 am   BACKBONE|DICT|INTERRES
   131   66   68 2    
   132   67  132 1    
   133   67  133 1    
   134   69   70 1    
   135   69  134 1    
   136   69  135 1    
   137   70   71 1    
   138   71  136 1    
   139   71  137 1    
@<TRIPOS>SUBSTRUCTURE
     1 UNK         1 GROUP             0       ****    0 ROOT    
