@<TRIPOS>MOLECULE
3R137
137   139    1
SMALL
USER_CHARGES


@<TRIPOS>ATOM
      1 CA         29.2990   -4.1665   -2.4598 C.3       0 UNK        -0.2020 
      2 C          28.7636   -3.0158   -1.6218 C.2       0 UNK         0.4855 
      3 O          28.3037   -3.2342   -0.5015 O.2       0 UNK        -0.5197 
      4 N          28.8201   -1.7912   -2.1598 N.am      1 UNK        -0.4892 
      5 CA         28.3972   -0.5484   -1.4992 C.3       1 UNK         0.0835 
      6 C6         28.9659    0.6956   -2.2259 C.3       12 UNK        -0.0855 
      7 S7         30.7696    0.8396   -1.9897 S.3       12 UNK        -0.2931 
      8 C8         31.4155    0.7682   -3.6897 C.3       12 UNK         0.0378 
      9 C9         31.4887   -0.6543   -4.2287 C.ar      12 UNK        -0.0802 
     10 C10        32.4048   -1.5646   -3.6947 C.ar      12 UNK        -0.0944 
     11 C11        32.5037   -2.8597   -4.2123 C.ar      12 UNK        -0.0787 
     12 C12        31.6652   -3.2510   -5.2599 C.ar      12 UNK        -0.0862 
     13 C13        30.7495   -2.3492   -5.8054 C.ar      12 UNK        -0.0733 
     14 C14        30.6766   -1.0498   -5.2934 C.ar      12 UNK        -0.0832 
     15 C15        29.8618   -2.7680   -6.9691 C.3       12 UNK         0.0240 
     16 S16        28.3451   -3.6285   -6.4372 S.3       12 UNK        -0.2522 
     17 C17        27.4917   -2.3233   -5.4985 C.3       12 UNK        -0.0967 
     18 CA         26.7345   -1.3206   -6.4087 C.3       5 UNK         0.0660 
     19 N          25.3916   -1.7932   -6.7551 N.am      5 UNK        -0.4015 
     20 C          24.6212   -1.2705   -7.7203 C.2       4 UNK         0.4946 
     21 O          24.9643   -0.3234   -8.4283 O.2       4 UNK        -0.5353 
     22 CA         23.2058   -1.8532   -7.8814 C.3       4 UNK         0.0277 
     23 CB         23.2246   -3.0483   -8.8470 C.3       4 UNK        -0.1981 
     24 N          22.5890   -2.2523   -6.6110 N.am      4 UNK        -0.4209 
     25 C          22.3621   -1.4218   -5.5830 C.2       3 UNK         0.4942 
     26 O          22.6224   -0.2184   -5.6177 O.2       3 UNK        -0.5208 
     27 CA         21.8005   -2.0182   -4.2771 C.3       3 UNK         0.0250 
     28 CB         21.5888   -3.5499   -4.3119 C.3       3 UNK        -0.1990 
     29 N          22.6307   -1.6366   -3.1259 N.am      3 UNK        -0.4232 
     30 C          23.9416   -1.8785   -2.9781 C.2       2 UNK         0.4993 
     31 O          24.6214   -2.5124   -3.7880 O.2       2 UNK        -0.5286 
     32 CA         24.6006   -1.3296   -1.7095 C.3       2 UNK         0.0209 
     33 CB         24.2670   -2.2120   -0.4923 C.3       2 UNK        -0.1931 
     34 N          26.0518   -1.2782   -1.8918 N.am      2 UNK        -0.4546 
     35 C          26.8711   -0.4189   -1.2731 C.2       1 UNK         0.5154 
     36 O          26.4615    0.4633   -0.5163 O.2       1 UNK        -0.5181 
     37 C          26.7482    0.0979   -5.7997 C.2       5 UNK         0.5014 
     38 O          27.8075    0.7233   -5.8099 O.2       5 UNK        -0.5248 
     39 N          25.6093    0.6105   -5.3060 N.am      6 UNK        -0.4434 
     40 CA         25.4984    2.0030   -4.8574 C.3       6 UNK         0.0363 
     41 CB         24.2126    2.1942   -4.0387 C.3       6 UNK        -0.1936 
     42 C          25.5555    3.0044   -6.0278 C.2       6 UNK         0.5081 
     43 O          25.9580    4.1487   -5.8167 O.2       6 UNK        -0.5248 
     44 N          25.1686    2.5591   -7.2319 N.am      7 UNK        -0.4718 
     45 CA         25.2863    3.3160   -8.4764 C.3       7 UNK         0.0273 
     46 CB         24.0309    3.0883   -9.3354 C.3       7 UNK        -0.1935 
     47 C          26.5539    2.9058   -9.2392 C.2       7 UNK         0.5018 
     48 O          27.3459    3.7718   -9.6129 O.2       7 UNK        -0.5186 
     49 N          26.7370    1.5952   -9.4505 N.am      8 UNK        -0.4240 
     50 CA         27.8239    1.0009  -10.2329 C.3       8 UNK         0.0235 
     51 CB         27.3440   -0.3528  -10.7917 C.3       8 UNK        -0.2000 
     52 C          29.1378    0.8755   -9.4371 C.2       8 UNK         0.4941 
     53 O          29.7214   -0.2078   -9.3860 O.2       8 UNK        -0.5273 
     54 N          29.5891    1.9818   -8.8342 N.am      9 UNK        -0.4262 
     55 CA         30.8586    2.0880   -8.1108 C.3       9 UNK         0.0264 
     56 CB         30.9194    3.4682   -7.4343 C.3       9 UNK        -0.1955 
     57 C          32.0613    1.8900   -9.0636 C.2       9 UNK         0.5031 
     58 O          32.0653    2.5073  -10.1301 O.2       9 UNK        -0.5390 
     59 N          33.0775    1.0830   -8.7298 N.am      10 UNK        -0.4204 
     60 CA         33.2551    0.2381   -7.5495 C.3       10 UNK         0.0237 
     61 CB         33.7490    1.0867   -6.3621 C.3       10 UNK        -0.1985 
     62 C          34.2597   -0.8732   -7.8839 C.2       10 UNK         0.4970 
     63 O          34.8902   -0.8235   -8.9445 O.2       10 UNK        -0.4914 
     64 N          34.3924   -1.8490   -6.9759 N.am      11 UNK        -0.4285 
     65 CA         35.3727   -2.9424   -7.0590 C.3       11 UNK         0.1007 
     66 C          36.8553   -2.4656   -7.0325 C.2       11 UNK         0.5703 
     67 N          37.7687   -3.2595   -7.5761 N.am      11 UNK        -0.7361 
     68 O          37.1893   -1.4056   -6.5047 O.2       11 UNK        -0.4986 
     69 C69        35.0942   -4.0495   -6.0044 C.3       12 UNK        -0.0947 
     70 S70        35.1979   -3.4914   -4.2650 S.3       12 UNK        -0.2240 
     71 C71        33.5221   -3.8316   -3.6401 C.3       12 UNK         0.0194 
     72 H72        29.4723   -3.8698   -3.4933 H         1 UNK         0.0906 
     73 H73        30.2409   -4.5260   -2.0464 H         1 UNK         0.0906 
     74 H74        28.5887   -4.9927   -2.4643 H         1 UNK         0.0906 
     75 H75        29.2877   -1.6682   -3.0465 H         1 UNK         0.3140 
     76 H76        28.8233   -0.5659   -0.4932 H         1 UNK         0.1085 
     77 H77        28.7178    0.6736   -3.2878 H         1 UNK         0.0836 
     78 H78        28.5261    1.6154   -1.8345 H         1 UNK         0.0836 
     79 H79        30.8164    1.4093   -4.3391 H         1 UNK         0.0731 
     80 H80        32.4193    1.1941   -3.6858 H         1 UNK         0.0731 
     81 H81        33.0504   -1.2601   -2.8818 H         1 UNK         0.1312 
     82 H82        31.7292   -4.2544   -5.6586 H         1 UNK         0.1406 
     83 H83        29.9912   -0.3419   -5.7344 H         1 UNK         0.1631 
     84 H84        30.4206   -3.4200   -7.6419 H         1 UNK         0.0717 
     85 H85        29.5828   -1.8971   -7.5579 H         1 UNK         0.0717 
     86 H86        28.2189   -1.8278   -4.8609 H         1 UNK         0.0934 
     87 H87        26.8162   -2.8168   -4.8038 H         1 UNK         0.0934 
     88 H88        27.2847   -1.2236   -7.3472 H         1 UNK         0.0739 
     89 H89        25.0120   -2.5245   -6.1683 H         1 UNK         0.3093 
     90 H90        22.5815   -1.0705   -8.3180 H         1 UNK         0.0818 
     91 H91        22.2170   -3.4124   -9.0487 H         1 UNK         0.0819 
     92 H92        23.6628   -2.7669   -9.8058 H         1 UNK         0.0819 
     93 H93        23.8108   -3.8795   -8.4528 H         1 UNK         0.0819 
     94 H94        22.3582   -3.2291   -6.4995 H         1 UNK         0.3041 
     95 H95        20.8258   -1.5515   -4.1272 H         1 UNK         0.0784 
     96 H96        20.8857   -3.8367   -5.0950 H         1 UNK         0.0793 
     97 H97        22.5194   -4.0939   -4.4794 H         1 UNK         0.0793 
     98 H98        21.1707   -3.9047   -3.3698 H         1 UNK         0.0793 
     99 H99        22.1601   -1.0905   -2.4176 H         1 UNK         0.3024 
    100 H100       24.2192   -0.3198   -1.5418 H         1 UNK         0.1171 
    101 H101       24.7045   -1.8094    0.4215 H         1 UNK         0.0786 
    102 H102       24.6414   -3.2286   -0.6205 H         1 UNK         0.0786 
    103 H103       23.1902   -2.2771   -0.3316 H         1 UNK         0.0786 
    104 H104       26.4282   -1.9641   -2.5322 H         1 UNK         0.2977 
    105 H105       24.7505    0.0729   -5.3495 H         1 UNK         0.3127 
    106 H106       26.3455    2.2150   -4.2009 H         1 UNK         0.0770 
    107 H107       23.3195    2.0829   -4.6535 H         1 UNK         0.0814 
    108 H108       24.1791    3.1934   -3.6026 H         1 UNK         0.0814 
    109 H109       24.1511    1.4810   -3.2179 H         1 UNK         0.0814 
    110 H110       24.8774    1.5932   -7.3187 H         1 UNK         0.2983 
    111 H111       25.3563    4.3851   -8.2627 H         1 UNK         0.0947 
    112 H112       24.0999    3.6322  -10.2785 H         1 UNK         0.0806 
    113 H113       23.1351    3.4407   -8.8238 H         1 UNK         0.0806 
    114 H114       23.8836    2.0345   -9.5758 H         1 UNK         0.0806 
    115 H115       26.0502    0.9390   -9.0802 H         1 UNK         0.3000 
    116 H116       28.0333    1.6513  -11.0850 H         1 UNK         0.0850 
    117 H117       28.0936   -0.7932  -11.4504 H         1 UNK         0.0810 
    118 H118       27.1481   -1.0706   -9.9941 H         1 UNK         0.0810 
    119 H119       26.4286   -0.2413  -11.3730 H         1 UNK         0.0810 
    120 H120       29.0530    2.8334   -8.9596 H         1 UNK         0.3040 
    121 H121       30.8469    1.3293   -7.3309 H         1 UNK         0.0766 
    122 H122       31.8603    3.6122   -6.9036 H         1 UNK         0.0812 
    123 H123       30.8354    4.2760   -8.1625 H         1 UNK         0.0812 
    124 H124       30.1151    3.5871   -6.7076 H         1 UNK         0.0812 
    125 H125       33.8181    0.9427   -9.4069 H         1 UNK         0.3205 
    126 H126       32.3167   -0.2595   -7.3103 H         1 UNK         0.0754 
    127 H127       34.6549    1.6386   -6.6159 H         1 UNK         0.0769 
    128 H128       33.9844    0.4655   -5.4973 H         1 UNK         0.0769 
    129 H129       33.0000    1.8067   -6.0400 H         1 UNK         0.0769 
    130 H130       33.8586   -1.8086   -6.1193 H         1 UNK         0.2981 
    131 H131       35.2209   -3.3986   -8.0394 H         1 UNK         0.0541 
    132 H132       37.5121   -4.1358   -8.0036 H         1 UNK         0.3459 
    133 H133       38.7356   -2.9750   -7.5597 H         1 UNK         0.3459 
    134 H134       35.7963   -4.8753   -6.1310 H         1 UNK         0.0612 
    135 H135       34.1119   -4.4845   -6.1885 H         1 UNK         0.0612 
    136 H136       33.2490   -4.8637   -3.8655 H         1 UNK         0.0624 
    137 H137       33.5293   -3.7487   -2.5523 H         1 UNK         0.0624 
@<TRIPOS>BOND
     1    1    2 1    
     2    1   72 1    
     3    1   73 1    
     4    1   74 1    
     5    2    3 2    
     6    2    4 am   BACKBONE|DICT|INTERRES
     7    4    5 1    
     8    4   75 1    
     9    5    6 1    
    10    5   35 1    
    11    5   76 1    
    12    6    7 1    
    13    6   77 1    
    14    6   78 1    
    15    7    8 1    
    16    8    9 1    
    17    8   79 1    
    18    8   80 1    
    19    9   10 ar   
    20    9   14 ar   
    21   10   11 ar   
    22   10   81 1    
    23   11   12 ar   
    24   11   71 1    
    25   12   13 ar   
    26   12   82 1    
    27   13   14 ar   
    28   13   15 1    
    29   14   83 1    
    30   15   16 1    
    31   15   84 1    
    32   15   85 1    
    33   16   17 1    
    34   17   18 1    
    35   17   86 1    
    36   17   87 1    
    37   18   19 1    
    38   18   37 1    
    39   18   88 1    
    40   19   20 am   BACKBONE|DICT|INTERRES
    41   19   89 1    
    42   20   21 2    
    43   20   22 1    
    44   22   23 1    
    45   22   24 1    
    46   22   90 1    
    47   23   91 1    
    48   23   92 1    
    49   23   93 1    
    50   24   25 am   BACKBONE|DICT|INTERRES
    51   24   94 1    
    52   25   26 2    
    53   25   27 1    
    54   27   28 1    
    55   27   29 1    
    56   27   95 1    
    57   28   96 1    
    58   28   97 1    
    59   28   98 1    
    60   29   30 am   BACKBONE|DICT|INTERRES
    61   29   99 1    
    62   30   31 2    
    63   30   32 1    
    64   32   33 1    
    65   32   34 1    
    66   32  100 1    
    67   33  101 1    
    68   33  102 1    
    69   33  103 1    
    70   34   35 am   BACKBONE|DICT|INTERRES
    71   34  104 1    
    72   35   36 2    
    73   37   38 2    
    74   37   39 am   BACKBONE|DICT|INTERRES
    75   39   40 1    
    76   39  105 1    
    77   40   41 1    
    78   40   42 1    
    79   40  106 1    
    80   41  107 1    
    81   41  108 1    
    82   41  109 1    
    83   42   43 2    
    84   42   44 am   BACKBONE|DICT|INTERRES
    85   44   45 1    
    86   44  110 1    
    87   45   46 1    
    88   45   47 1    
    89   45  111 1    
    90   46  112 1    
    91   46  113 1    
    92   46  114 1    
    93   47   48 2    
    94   47   49 am   BACKBONE|DICT|INTERRES
    95   49   50 1    
    96   49  115 1    
    97   50   51 1    
    98   50   52 1    
    99   50  116 1    
   100   51  117 1    
   101   51  118 1    
   102   51  119 1    
   103   52   53 2    
   104   52   54 am   BACKBONE|DICT|INTERRES
   105   54   55 1    
   106   54  120 1    
   107   55   56 1    
   108   55   57 1    
   109   55  121 1    
   110   56  122 1    
   111   56  123 1    
   112   56  124 1    
   113   57   58 2    
   114   57   59 am   BACKBONE|DICT|INTERRES
   115   59   60 1    
   116   59  125 1    
   117   60   61 1    
   118   60   62 1    
   119   60  126 1    
   120   61  127 1    
   121   61  128 1    
   122   61  129 1    
   123   62   63 2    
   124   62   64 am   BACKBONE|DICT|INTERRES
   125   64   65 1    
   126   64  130 1    
   127   65   66 1    
   128   65   69 1    
   129   65  131 1    
   130   66   67 am   BACKBONE|DICT|INTERRES
   131   66   68 2    
   132   67  132 1    
   133   67  133 1    
   134   69   70 1    
   135   69  134 1    
   136   69  135 1    
   137   70   71 1    
   138   71  136 1    
   139   71  137 1    
@<TRIPOS>SUBSTRUCTURE
     1 UNK         1 GROUP             0       ****    0 ROOT    
