@<TRIPOS>MOLECULE
3R137
137   139    1
SMALL
USER_CHARGES


@<TRIPOS>ATOM
      1 CA         28.8358   -6.3304   -8.3376 C.3       0 UNK        -0.2020 
      2 C          28.2640   -6.3344   -6.9282 C.2       0 UNK         0.4855 
      3 O          27.5360   -7.2584   -6.5643 O.2       0 UNK        -0.5197 
      4 N          28.5868   -5.3083   -6.1326 N.am      1 UNK        -0.4892 
      5 CA         28.0261   -5.0705   -4.7999 C.3       1 UNK         0.0835 
      6 C6         28.9178   -4.0485   -4.0613 C.3       12 UNK        -0.0855 
      7 S7         28.5470   -3.8319   -2.2906 S.3       12 UNK        -0.2931 
      8 C8         30.1438   -3.1977   -1.6740 C.3       12 UNK         0.0378 
      9 C9         30.4143   -1.7569   -2.0976 C.ar      12 UNK        -0.0802 
     10 C10        30.9413   -1.4795   -3.3640 C.ar      12 UNK        -0.0944 
     11 C11        31.2160   -0.1643   -3.7448 C.ar      12 UNK        -0.0787 
     12 C12        30.9898    0.8778   -2.8441 C.ar      12 UNK        -0.0862 
     13 C13        30.4553    0.6203   -1.5813 C.ar      12 UNK        -0.0733 
     14 C14        30.1700   -0.6998   -1.2118 C.ar      12 UNK        -0.0832 
     15 C15        30.1976    1.7693   -0.6172 C.3       12 UNK         0.0240 
     16 S16        28.4655    2.3238   -0.6824 S.3       12 UNK        -0.2522 
     17 C17        28.4381    3.5055   -2.0875 C.3       12 UNK        -0.0967 
     18 CA         28.2247    2.8925   -3.5063 C.3       5 UNK         0.0660 
     19 N          27.5633    1.5899   -3.4611 N.am      5 UNK        -0.4015 
     20 C          27.3549    0.7425   -4.4742 C.2       4 UNK         0.4946 
     21 O          27.5662    1.0074   -5.6609 O.2       4 UNK        -0.5353 
     22 CA         26.8654   -0.6600   -4.0840 C.3       4 UNK         0.0277 
     23 CB         26.5803   -0.8432   -2.5736 C.3       4 UNK        -0.1981 
     24 N          25.7096   -1.1134   -4.8529 N.am      4 UNK        -0.4209 
     25 C          24.4981   -0.5404   -4.8982 C.2       3 UNK         0.4942 
     26 O          24.2505    0.5975   -4.4943 O.2       3 UNK        -0.5208 
     27 CA         23.3490   -1.4185   -5.4321 C.3       3 UNK         0.0250 
     28 CB         23.0843   -1.1197   -6.9156 C.3       3 UNK        -0.1990 
     29 N          23.5967   -2.8568   -5.2631 N.am      3 UNK        -0.4232 
     30 C          23.7282   -3.4974   -4.0897 C.2       2 UNK         0.4993 
     31 O          23.5210   -2.9741   -2.9946 O.2       2 UNK        -0.5286 
     32 CA         24.1895   -4.9682   -4.1423 C.3       2 UNK         0.0209 
     33 CB         23.6016   -5.7379   -5.3465 C.3       2 UNK        -0.1931 
     34 N          25.6538   -5.1319   -4.0938 N.am      2 UNK        -0.4546 
     35 C          26.5559   -4.6095   -4.9396 C.2       1 UNK         0.5154 
     36 O          26.2644   -3.8060   -5.8273 O.2       1 UNK        -0.5181 
     37 C          27.5353    3.8999   -4.4474 C.2       5 UNK         0.5014 
     38 O          28.2187    4.7335   -5.0422 O.2       5 UNK        -0.5248 
     39 N          26.2036    3.8010   -4.5713 N.am      6 UNK        -0.4434 
     40 CA         25.3864    4.6404   -5.4496 C.3       6 UNK         0.0363 
     41 CB         23.9082    4.4964   -5.0534 C.3       6 UNK        -0.1936 
     42 C          25.5743    4.3123   -6.9406 C.2       6 UNK         0.5081 
     43 O          25.4591    5.2114   -7.7738 O.2       6 UNK        -0.5248 
     44 N          25.8504    3.0391   -7.2497 N.am      7 UNK        -0.4718 
     45 CA         26.0578    2.5422   -8.6115 C.3       7 UNK         0.0273 
     46 CB         25.4211    1.1468   -8.7181 C.3       7 UNK        -0.1935 
     47 C          27.5435    2.4745   -9.0018 C.2       7 UNK         0.5018 
     48 O          27.8391    2.3838  -10.1936 O.2       7 UNK        -0.5186 
     49 N          28.4364    2.4697   -7.9990 N.am      8 UNK        -0.4240 
     50 CA         29.8662    2.1383   -8.0773 C.3       8 UNK         0.0235 
     51 CB         30.6455    3.1497   -8.9440 C.3       8 UNK        -0.2000 
     52 C          30.0891    0.6735   -8.5089 C.2       8 UNK         0.4941 
     53 O          31.0593    0.3697   -9.2085 O.2       8 UNK        -0.5273 
     54 N          29.1672   -0.2070   -8.0966 N.am      9 UNK        -0.4262 
     55 CA         29.0650   -1.6014   -8.5206 C.3       9 UNK         0.0264 
     56 CB         27.7209   -2.1575   -8.0359 C.3       9 UNK        -0.1955 
     57 C          30.2437   -2.4468   -8.0161 C.2       9 UNK         0.5031 
     58 O          30.2700   -2.8075   -6.8390 O.2       9 UNK        -0.5390 
     59 N          31.1811   -2.7351   -8.9286 N.am      10 UNK        -0.4204 
     60 CA         32.4856   -3.3808   -8.7229 C.3       10 UNK         0.0237 
     61 CB         32.3848   -4.7136   -7.9472 C.3       10 UNK        -0.1985 
     62 C          33.5685   -2.4387   -8.1575 C.2       10 UNK         0.4970 
     63 O          34.6478   -2.9205   -7.8089 O.2       10 UNK        -0.4914 
     64 N          33.3006   -1.1265   -8.1289 N.am      11 UNK        -0.4285 
     65 CA         34.2961   -0.0731   -7.8732 C.3       11 UNK         0.1007 
     66 C          34.6874    0.6625   -9.1825 C.2       11 UNK         0.5703 
     67 N          33.7700    0.8601  -10.1233 N.am      11 UNK        -0.7361 
     68 O          35.8415    1.0488   -9.3514 O.2       11 UNK        -0.4986 
     69 C69        33.8177    0.9498   -6.8133 C.3       12 UNK        -0.0947 
     70 S70        33.5487    0.2037   -5.1726 S.3       12 UNK        -0.2240 
     71 C71        31.7362    0.1443   -5.1352 C.3       12 UNK         0.0194 
     72 H72        28.0574   -6.5764   -9.0594 H         1 UNK         0.0906 
     73 H73        29.2430   -5.3564   -8.6063 H         1 UNK         0.0906 
     74 H74        29.6286   -7.0727   -8.4244 H         1 UNK         0.0906 
     75 H75        29.1720   -4.5568   -6.4851 H         1 UNK         0.3140 
     76 H76        28.0479   -6.0141   -4.2502 H         1 UNK         0.1085 
     77 H77        28.8876   -3.0838   -4.5638 H         1 UNK         0.0836 
     78 H78        29.9550   -4.3795   -4.1363 H         1 UNK         0.0836 
     79 H79        30.9541   -3.8443   -2.0141 H         1 UNK         0.0731 
     80 H80        30.1443   -3.2697   -0.5853 H         1 UNK         0.0731 
     81 H81        31.1379   -2.2834   -4.0599 H         1 UNK         0.1312 
     82 H82        31.2233    1.8935   -3.1317 H         1 UNK         0.1406 
     83 H83        29.7602   -0.9032   -0.2315 H         1 UNK         0.1631 
     84 H84        30.8663    2.6074   -0.8194 H         1 UNK         0.0717 
     85 H85        30.4210    1.4440    0.3999 H         1 UNK         0.0717 
     86 H86        27.6373    4.2096   -1.8504 H         1 UNK         0.0934 
     87 H87        29.3520    4.1020   -2.0747 H         1 UNK         0.0934 
     88 H88        29.2069    2.7076   -3.9419 H         1 UNK         0.0739 
     89 H89        27.3655    1.2598   -2.5268 H         1 UNK         0.3093 
     90 H90        27.6835   -1.3238   -4.3477 H         1 UNK         0.0818 
     91 H91        27.4735   -0.6777   -1.9719 H         1 UNK         0.0819 
     92 H92        25.8004   -0.1699   -2.2153 H         1 UNK         0.0819 
     93 H93        26.2476   -1.8598   -2.3630 H         1 UNK         0.0819 
     94 H94        25.8060   -2.0367   -5.2692 H         1 UNK         0.3041 
     95 H95        22.4526   -1.1658   -4.8621 H         1 UNK         0.0784 
     96 H96        22.8596   -0.0626   -7.0634 H         1 UNK         0.0793 
     97 H97        23.9470   -1.3633   -7.5371 H         1 UNK         0.0793 
     98 H98        22.2303   -1.6853   -7.2886 H         1 UNK         0.0793 
     99 H99        23.8454   -3.3702   -6.0972 H         1 UNK         0.3024 
    100 H100       23.7968   -5.4369   -3.2380 H         1 UNK         0.1171 
    101 H101       23.7938   -6.8071   -5.2554 H         1 UNK         0.0786 
    102 H102       22.5195   -5.6113   -5.4041 H         1 UNK         0.0786 
    103 H103       24.0233   -5.4123   -6.2978 H         1 UNK         0.0786 
    104 H104       25.9931   -5.7369   -3.3584 H         1 UNK         0.2977 
    105 H105       25.7248    3.0707   -4.0617 H         1 UNK         0.3127 
    106 H106       25.6812    5.6815   -5.3002 H         1 UNK         0.0770 
    107 H107       23.5598    3.4679   -5.1602 H         1 UNK         0.0814 
    108 H108       23.2731    5.1229   -5.6813 H         1 UNK         0.0814 
    109 H109       23.7421    4.8020   -4.0203 H         1 UNK         0.0814 
    110 H110       25.9578    2.3673   -6.4993 H         1 UNK         0.2983 
    111 H111       25.5625    3.1980   -9.3312 H         1 UNK         0.0947 
    112 H112       25.8263    0.4614   -7.9729 H         1 UNK         0.0806 
    113 H113       25.5954    0.7056   -9.7006 H         1 UNK         0.0806 
    114 H114       24.3421    1.1982   -8.5757 H         1 UNK         0.0806 
    115 H115       28.0552    2.4848   -7.0599 H         1 UNK         0.3000 
    116 H116       30.2433    2.2248   -7.0596 H         1 UNK         0.0850 
    117 H117       30.4527    4.1746   -8.6273 H         1 UNK         0.0810 
    118 H118       30.3845    3.0683   -9.9993 H         1 UNK         0.0810 
    119 H119       31.7205    2.9831   -8.8659 H         1 UNK         0.0810 
    120 H120       28.4570    0.1221   -7.4526 H         1 UNK         0.3040 
    121 H121       29.0585   -1.6237   -9.6124 H         1 UNK         0.0766 
    122 H122       27.6357   -3.2272   -8.2306 H         1 UNK         0.0812 
    123 H123       26.8836   -1.6712   -8.5351 H         1 UNK         0.0812 
    124 H124       27.6053   -2.0052   -6.9635 H         1 UNK         0.0812 
    125 H125       31.0386   -2.3696   -9.8613 H         1 UNK         0.3205 
    126 H126       32.8333   -3.6327   -9.7258 H         1 UNK         0.0754 
    127 H127       33.3359   -5.2469   -7.9656 H         1 UNK         0.0769 
    128 H128       31.6426   -5.3761   -8.3889 H         1 UNK         0.0769 
    129 H129       32.1274   -4.5618   -6.8989 H         1 UNK         0.0769 
    130 H130       32.4022   -0.7988   -8.4672 H         1 UNK         0.2981 
    131 H131       35.2147   -0.5216   -7.4902 H         1 UNK         0.0541 
    132 H132       34.0323    1.3302  -10.9746 H         1 UNK         0.3459 
    133 H133       32.7985    0.6152   -9.9595 H         1 UNK         0.3459 
    134 H134       34.5655    1.7344   -6.6830 H         1 UNK         0.0612 
    135 H135       32.9108    1.4552   -7.1482 H         1 UNK         0.0612 
    136 H136       31.3818   -0.5967   -5.8512 H         1 UNK         0.0624 
    137 H137       31.3368    1.1057   -5.4537 H         1 UNK         0.0624 
@<TRIPOS>BOND
     1    1    2 1    
     2    1   72 1    
     3    1   73 1    
     4    1   74 1    
     5    2    3 2    
     6    2    4 am   BACKBONE|DICT|INTERRES
     7    4    5 1    
     8    4   75 1    
     9    5    6 1    
    10    5   35 1    
    11    5   76 1    
    12    6    7 1    
    13    6   77 1    
    14    6   78 1    
    15    7    8 1    
    16    8    9 1    
    17    8   79 1    
    18    8   80 1    
    19    9   10 ar   
    20    9   14 ar   
    21   10   11 ar   
    22   10   81 1    
    23   11   12 ar   
    24   11   71 1    
    25   12   13 ar   
    26   12   82 1    
    27   13   14 ar   
    28   13   15 1    
    29   14   83 1    
    30   15   16 1    
    31   15   84 1    
    32   15   85 1    
    33   16   17 1    
    34   17   18 1    
    35   17   86 1    
    36   17   87 1    
    37   18   19 1    
    38   18   37 1    
    39   18   88 1    
    40   19   20 am   BACKBONE|DICT|INTERRES
    41   19   89 1    
    42   20   21 2    
    43   20   22 1    
    44   22   23 1    
    45   22   24 1    
    46   22   90 1    
    47   23   91 1    
    48   23   92 1    
    49   23   93 1    
    50   24   25 am   BACKBONE|DICT|INTERRES
    51   24   94 1    
    52   25   26 2    
    53   25   27 1    
    54   27   28 1    
    55   27   29 1    
    56   27   95 1    
    57   28   96 1    
    58   28   97 1    
    59   28   98 1    
    60   29   30 am   BACKBONE|DICT|INTERRES
    61   29   99 1    
    62   30   31 2    
    63   30   32 1    
    64   32   33 1    
    65   32   34 1    
    66   32  100 1    
    67   33  101 1    
    68   33  102 1    
    69   33  103 1    
    70   34   35 am   BACKBONE|DICT|INTERRES
    71   34  104 1    
    72   35   36 2    
    73   37   38 2    
    74   37   39 am   BACKBONE|DICT|INTERRES
    75   39   40 1    
    76   39  105 1    
    77   40   41 1    
    78   40   42 1    
    79   40  106 1    
    80   41  107 1    
    81   41  108 1    
    82   41  109 1    
    83   42   43 2    
    84   42   44 am   BACKBONE|DICT|INTERRES
    85   44   45 1    
    86   44  110 1    
    87   45   46 1    
    88   45   47 1    
    89   45  111 1    
    90   46  112 1    
    91   46  113 1    
    92   46  114 1    
    93   47   48 2    
    94   47   49 am   BACKBONE|DICT|INTERRES
    95   49   50 1    
    96   49  115 1    
    97   50   51 1    
    98   50   52 1    
    99   50  116 1    
   100   51  117 1    
   101   51  118 1    
   102   51  119 1    
   103   52   53 2    
   104   52   54 am   BACKBONE|DICT|INTERRES
   105   54   55 1    
   106   54  120 1    
   107   55   56 1    
   108   55   57 1    
   109   55  121 1    
   110   56  122 1    
   111   56  123 1    
   112   56  124 1    
   113   57   58 2    
   114   57   59 am   BACKBONE|DICT|INTERRES
   115   59   60 1    
   116   59  125 1    
   117   60   61 1    
   118   60   62 1    
   119   60  126 1    
   120   61  127 1    
   121   61  128 1    
   122   61  129 1    
   123   62   63 2    
   124   62   64 am   BACKBONE|DICT|INTERRES
   125   64   65 1    
   126   64  130 1    
   127   65   66 1    
   128   65   69 1    
   129   65  131 1    
   130   66   67 am   BACKBONE|DICT|INTERRES
   131   66   68 2    
   132   67  132 1    
   133   67  133 1    
   134   69   70 1    
   135   69  134 1    
   136   69  135 1    
   137   70   71 1    
   138   71  136 1    
   139   71  137 1    
@<TRIPOS>SUBSTRUCTURE
     1 UNK         1 GROUP             0       ****    0 ROOT    
