@<TRIPOS>MOLECULE
3R137
137   139    1
SMALL
USER_CHARGES


@<TRIPOS>ATOM
      1 CA         24.1878   -6.0839   -3.6824 C.3       0 UNK        -0.2020 
      2 C          24.7659   -5.1592   -2.6218 C.2       0 UNK         0.4855 
      3 O          24.0719   -4.2561   -2.1524 O.2       0 UNK        -0.5197 
      4 N          26.0318   -5.3756   -2.2389 N.am      1 UNK        -0.4892 
      5 CA         26.7695   -4.5491   -1.2781 C.3       1 UNK         0.0835 
      6 C6         28.1154   -5.2107   -0.8884 C.3       12 UNK        -0.0855 
      7 S7         28.8910   -4.4312    0.5740 S.3       12 UNK        -0.2931 
      8 C8         30.6629   -4.3888    0.1236 C.3       12 UNK         0.0378 
      9 C9         30.9210   -3.6878   -1.2048 C.ar      12 UNK        -0.0802 
     10 C10        31.5624   -4.3661   -2.2452 C.ar      12 UNK        -0.0944 
     11 C11        31.7334   -3.7686   -3.4978 C.ar      12 UNK        -0.0787 
     12 C12        31.2456   -2.4688   -3.6966 C.ar      12 UNK        -0.0862 
     13 C13        30.6286   -1.7653   -2.6555 C.ar      12 UNK        -0.0733 
     14 C14        30.4835   -2.3779   -1.4089 C.ar      12 UNK        -0.0832 
     15 C15        30.0082   -0.3916   -2.8758 C.3       12 UNK         0.0240 
     16 S16        30.9351    0.7013   -3.9992 S.3       12 UNK        -0.2522 
     17 C17        29.6542    1.9630   -4.3146 C.3       12 UNK        -0.0967 
     18 CA         28.8974    1.7130   -5.6433 C.3       5 UNK         0.0660 
     19 N          28.2212    0.4155   -5.6742 N.am      5 UNK        -0.4015 
     20 C          28.2909   -0.4621   -6.6831 C.2       4 UNK         0.4946 
     21 O          28.9800   -0.2945   -7.6902 O.2       4 UNK        -0.5353 
     22 CA         27.4678   -1.7586   -6.5542 C.3       4 UNK         0.0277 
     23 CB         28.3880   -2.9456   -6.2234 C.3       4 UNK        -0.1981 
     24 N          26.4005   -1.6875   -5.5502 N.am      4 UNK        -0.4209 
     25 C          25.2740   -0.9695   -5.6891 C.2       3 UNK         0.4942 
     26 O          24.9955   -0.3217   -6.6955 O.2       3 UNK        -0.5208 
     27 CA         24.3056   -0.9173   -4.4932 C.3       3 UNK         0.0250 
     28 CB         23.2106   -1.9836   -4.6471 C.3       3 UNK        -0.1990 
     29 N          24.9519   -1.0653   -3.1865 N.am      3 UNK        -0.4232 
     30 C          25.9406   -0.2901   -2.7157 C.2       2 UNK         0.4993 
     31 O          26.4129    0.6671   -3.3334 O.2       2 UNK        -0.5286 
     32 CA         26.5521   -0.6819   -1.3582 C.3       2 UNK         0.0209 
     33 CB         25.8710    0.1032   -0.2268 C.3       2 UNK        -0.1931 
     34 N          26.5106   -2.1175   -1.0462 N.am      2 UNK        -0.4546 
     35 C          26.9451   -3.1174   -1.8301 C.2       1 UNK         0.5154 
     36 O          27.4184   -2.9534   -2.9575 O.2       1 UNK        -0.5181 
     37 C          27.8745    2.8314   -5.9063 C.2       5 UNK         0.5014 
     38 O          28.1881    3.7682   -6.6417 O.2       5 UNK        -0.5248 
     39 N          26.6775    2.7233   -5.3047 N.am      6 UNK        -0.4434 
     40 CA         25.5829    3.6909   -5.4328 C.3       6 UNK         0.0363 
     41 CB         24.4820    3.3529   -4.4154 C.3       6 UNK        -0.1936 
     42 C          24.9969    3.7803   -6.8536 C.2       6 UNK         0.5081 
     43 O          24.6019    4.8690   -7.2727 O.2       6 UNK        -0.5248 
     44 N          24.9676    2.6519   -7.5697 N.am      7 UNK        -0.4718 
     45 CA         24.6598    2.5586   -8.9943 C.3       7 UNK         0.0273 
     46 CB         23.3749    1.7351   -9.1792 C.3       7 UNK        -0.1935 
     47 C          25.8468    1.8759   -9.6836 C.2       7 UNK         0.5018 
     48 O          26.5821    1.1360   -9.0298 O.2       7 UNK        -0.5186 
     49 N          26.0335    2.1425  -10.9833 N.am      8 UNK        -0.4240 
     50 CA         27.0874    1.6244  -11.8766 C.3       8 UNK         0.0235 
     51 CB         27.0076    0.0895  -12.0067 C.3       8 UNK        -0.2000 
     52 C          28.5296    2.0659  -11.5444 C.2       8 UNK         0.4941 
     53 O          29.3123    2.2530  -12.4767 O.2       8 UNK        -0.5273 
     54 N          28.8491    2.2357  -10.2536 N.am      9 UNK        -0.4262 
     55 CA         30.1435    2.6214   -9.6810 C.3       9 UNK         0.0264 
     56 CB         30.5377    4.0527  -10.1044 C.3       9 UNK        -0.1955 
     57 C          31.2334    1.5739   -9.9716 C.2       9 UNK         0.5031 
     58 O          32.2791    1.8997  -10.5397 O.2       9 UNK        -0.5390 
     59 N          30.9531    0.3248   -9.5843 N.am      10 UNK        -0.4204 
     60 CA         31.8723   -0.8074   -9.6715 C.3       10 UNK         0.0237 
     61 CB         31.0385   -2.0941   -9.8213 C.3       10 UNK        -0.1985 
     62 C          32.7830   -0.8719   -8.4313 C.2       10 UNK         0.4970 
     63 O          32.6520   -0.0563   -7.5154 O.2       10 UNK        -0.4914 
     64 N          33.6836   -1.8632   -8.4280 N.am      11 UNK        -0.4285 
     65 CA         34.5894   -2.2129   -7.3163 C.3       11 UNK         0.1007 
     66 C          35.7519   -1.2022   -7.0746 C.2       11 UNK         0.5703 
     67 N          36.0141   -0.2638   -7.9769 N.am      11 UNK        -0.7361 
     68 O          36.4564   -1.2905   -6.0713 O.2       11 UNK        -0.4986 
     69 C69        33.8384   -2.5800   -6.0006 C.3       12 UNK        -0.0947 
     70 S70        32.5251   -3.8273   -6.2475 S.3       12 UNK        -0.2240 
     71 C71        32.4206   -4.5918   -4.5925 C.3       12 UNK         0.0194 
     72 H72        23.2827   -6.5623   -3.3091 H         1 UNK         0.0906 
     73 H73        23.9294   -5.5164   -4.5758 H         1 UNK         0.0906 
     74 H74        24.8904   -6.8662   -3.9690 H         1 UNK         0.0906 
     75 H75        26.5633   -6.1110   -2.6828 H         1 UNK         0.3140 
     76 H76        26.1528   -4.4975   -0.3777 H         1 UNK         0.1085 
     77 H77        28.7975   -5.2126   -1.7398 H         1 UNK         0.0836 
     78 H78        27.9523   -6.2604   -0.6388 H         1 UNK         0.0836 
     79 H79        31.0401   -5.4125    0.1017 H         1 UNK         0.0731 
     80 H80        31.2164   -3.8742    0.9102 H         1 UNK         0.0731 
     81 H81        31.9092   -5.3788   -2.0887 H         1 UNK         0.1312 
     82 H82        31.3164   -1.9995   -4.6662 H         1 UNK         0.1406 
     83 H83        29.9758   -1.8585   -0.6074 H         1 UNK         0.1631 
     84 H84        29.8874    0.1295   -1.9251 H         1 UNK         0.0717 
     85 H85        29.0100   -0.5547   -3.2786 H         1 UNK         0.0717 
     86 H86        28.9641    2.0066   -3.4692 H         1 UNK         0.0934 
     87 H87        30.1526    2.9340   -4.3444 H         1 UNK         0.0934 
     88 H88        29.6363    1.7583   -6.4453 H         1 UNK         0.0739 
     89 H89        27.6110    0.2107   -4.8922 H         1 UNK         0.3093 
     90 H90        27.0072   -1.9413   -7.5275 H         1 UNK         0.0818 
     91 H91        28.8616   -2.8264   -5.2487 H         1 UNK         0.0819 
     92 H92        27.8370   -3.8859   -6.2136 H         1 UNK         0.0819 
     93 H93        29.1858   -3.0441   -6.9603 H         1 UNK         0.0819 
     94 H94        26.5740   -2.1701   -4.6729 H         1 UNK         0.3041 
     95 H95        23.8260    0.0622   -4.5054 H         1 UNK         0.0784 
     96 H96        22.6694   -1.8539   -5.5855 H         1 UNK         0.0793 
     97 H97        23.6280   -2.9906   -4.6490 H         1 UNK         0.0793 
     98 H98        22.4792   -1.9248   -3.8408 H         1 UNK         0.0793 
     99 H99        24.6545   -1.8513   -2.6227 H         1 UNK         0.3024 
    100 H100       27.6009   -0.3888   -1.3812 H         1 UNK         0.1171 
    101 H101       26.3661   -0.0663    0.7296 H         1 UNK         0.0786 
    102 H102       25.9057    1.1767   -0.4200 H         1 UNK         0.0786 
    103 H103       24.8218   -0.1742   -0.1172 H         1 UNK         0.0786 
    104 H104       26.1223   -2.3587   -0.1454 H         1 UNK         0.2977 
    105 H105       26.5186    1.9506   -4.6618 H         1 UNK         0.3127 
    106 H106       25.9852    4.6748   -5.1826 H         1 UNK         0.0770 
    107 H107       24.0275    2.3847   -4.6228 H         1 UNK         0.0814 
    108 H108       23.6859    4.0982   -4.4416 H         1 UNK         0.0814 
    109 H109       24.8723    3.3300   -3.3976 H         1 UNK         0.0814 
    110 H110       25.3427    1.7968   -7.1704 H         1 UNK         0.2983 
    111 H111       24.5241    3.5511   -9.4296 H         1 UNK         0.0947 
    112 H112       23.1108    1.6504  -10.2340 H         1 UNK         0.0806 
    113 H113       22.5312    2.1997   -8.6688 H         1 UNK         0.0806 
    114 H114       23.4861    0.7229   -8.7874 H         1 UNK         0.0806 
    115 H115       25.3915    2.7885  -11.4224 H         1 UNK         0.3000 
    116 H116       26.8620    2.0434  -12.8588 H         1 UNK         0.0850 
    117 H117       27.7099   -0.2731  -12.7585 H         1 UNK         0.0810 
    118 H118       26.0118   -0.2326  -12.3111 H         1 UNK         0.0810 
    119 H119       27.2522   -0.4136  -11.0704 H         1 UNK         0.0810 
    120 H120       28.1369    1.9514   -9.5828 H         1 UNK         0.3040 
    121 H121       30.0071    2.6309   -8.5996 H         1 UNK         0.0766 
    122 H122       29.7580    4.7694   -9.8466 H         1 UNK         0.0812 
    123 H123       30.7221    4.1263  -11.1765 H         1 UNK         0.0812 
    124 H124       31.4495    4.3693   -9.5968 H         1 UNK         0.0812 
    125 H125       30.1175    0.1636   -9.0194 H         1 UNK         0.3205 
    126 H126       32.5036   -0.6943  -10.5553 H         1 UNK         0.0754 
    127 H127       31.6708   -2.9646   -9.9978 H         1 UNK         0.0769 
    128 H128       30.3495   -2.0233  -10.6633 H         1 UNK         0.0769 
    129 H129       30.4495   -2.2958   -8.9260 H         1 UNK         0.0769 
    130 H130       33.7360   -2.4725   -9.2309 H         1 UNK         0.2981 
    131 H131       35.0941   -3.1204   -7.6489 H         1 UNK         0.0541 
    132 H132       36.7761    0.3759   -7.8169 H         1 UNK         0.3459 
    133 H133       35.4481   -0.1803   -8.8058 H         1 UNK         0.3459 
    134 H134       34.5441   -2.9711   -5.2659 H         1 UNK         0.0612 
    135 H135       33.4002   -1.6887   -5.5507 H         1 UNK         0.0612 
    136 H136       33.4252   -4.8598   -4.2626 H         1 UNK         0.0624 
    137 H137       31.8758   -5.5303   -4.7038 H         1 UNK         0.0624 
@<TRIPOS>BOND
     1    1    2 1    
     2    1   72 1    
     3    1   73 1    
     4    1   74 1    
     5    2    3 2    
     6    2    4 am   BACKBONE|DICT|INTERRES
     7    4    5 1    
     8    4   75 1    
     9    5    6 1    
    10    5   35 1    
    11    5   76 1    
    12    6    7 1    
    13    6   77 1    
    14    6   78 1    
    15    7    8 1    
    16    8    9 1    
    17    8   79 1    
    18    8   80 1    
    19    9   10 ar   
    20    9   14 ar   
    21   10   11 ar   
    22   10   81 1    
    23   11   12 ar   
    24   11   71 1    
    25   12   13 ar   
    26   12   82 1    
    27   13   14 ar   
    28   13   15 1    
    29   14   83 1    
    30   15   16 1    
    31   15   84 1    
    32   15   85 1    
    33   16   17 1    
    34   17   18 1    
    35   17   86 1    
    36   17   87 1    
    37   18   19 1    
    38   18   37 1    
    39   18   88 1    
    40   19   20 am   BACKBONE|DICT|INTERRES
    41   19   89 1    
    42   20   21 2    
    43   20   22 1    
    44   22   23 1    
    45   22   24 1    
    46   22   90 1    
    47   23   91 1    
    48   23   92 1    
    49   23   93 1    
    50   24   25 am   BACKBONE|DICT|INTERRES
    51   24   94 1    
    52   25   26 2    
    53   25   27 1    
    54   27   28 1    
    55   27   29 1    
    56   27   95 1    
    57   28   96 1    
    58   28   97 1    
    59   28   98 1    
    60   29   30 am   BACKBONE|DICT|INTERRES
    61   29   99 1    
    62   30   31 2    
    63   30   32 1    
    64   32   33 1    
    65   32   34 1    
    66   32  100 1    
    67   33  101 1    
    68   33  102 1    
    69   33  103 1    
    70   34   35 am   BACKBONE|DICT|INTERRES
    71   34  104 1    
    72   35   36 2    
    73   37   38 2    
    74   37   39 am   BACKBONE|DICT|INTERRES
    75   39   40 1    
    76   39  105 1    
    77   40   41 1    
    78   40   42 1    
    79   40  106 1    
    80   41  107 1    
    81   41  108 1    
    82   41  109 1    
    83   42   43 2    
    84   42   44 am   BACKBONE|DICT|INTERRES
    85   44   45 1    
    86   44  110 1    
    87   45   46 1    
    88   45   47 1    
    89   45  111 1    
    90   46  112 1    
    91   46  113 1    
    92   46  114 1    
    93   47   48 2    
    94   47   49 am   BACKBONE|DICT|INTERRES
    95   49   50 1    
    96   49  115 1    
    97   50   51 1    
    98   50   52 1    
    99   50  116 1    
   100   51  117 1    
   101   51  118 1    
   102   51  119 1    
   103   52   53 2    
   104   52   54 am   BACKBONE|DICT|INTERRES
   105   54   55 1    
   106   54  120 1    
   107   55   56 1    
   108   55   57 1    
   109   55  121 1    
   110   56  122 1    
   111   56  123 1    
   112   56  124 1    
   113   57   58 2    
   114   57   59 am   BACKBONE|DICT|INTERRES
   115   59   60 1    
   116   59  125 1    
   117   60   61 1    
   118   60   62 1    
   119   60  126 1    
   120   61  127 1    
   121   61  128 1    
   122   61  129 1    
   123   62   63 2    
   124   62   64 am   BACKBONE|DICT|INTERRES
   125   64   65 1    
   126   64  130 1    
   127   65   66 1    
   128   65   69 1    
   129   65  131 1    
   130   66   67 am   BACKBONE|DICT|INTERRES
   131   66   68 2    
   132   67  132 1    
   133   67  133 1    
   134   69   70 1    
   135   69  134 1    
   136   69  135 1    
   137   70   71 1    
   138   71  136 1    
   139   71  137 1    
@<TRIPOS>SUBSTRUCTURE
     1 UNK         1 GROUP             0       ****    0 ROOT    
