@<TRIPOS>MOLECULE
3R137
137   139    1
SMALL
USER_CHARGES


@<TRIPOS>ATOM
      1 CA         29.3611   -4.9045   -4.2365 C.3       0 UNK        -0.2020 
      2 C          28.5249   -5.2275   -3.0081 C.2       0 UNK         0.4855 
      3 O          27.8320   -6.2448   -2.9909 O.2       0 UNK        -0.5197 
      4 N          28.5884   -4.3748   -1.9778 N.am      1 UNK        -0.4892 
      5 CA         27.8977   -4.5654   -0.6937 C.3       1 UNK         0.0835 
      6 C6         28.5686   -3.7552    0.4441 C.3       12 UNK        -0.0855 
      7 S7         30.2694   -4.3272    0.7858 S.3       12 UNK        -0.2931 
      8 C8         31.2599   -2.8263    0.4980 C.3       12 UNK         0.0378 
      9 C9         31.3937   -2.5033   -0.9829 C.ar      12 UNK        -0.0802 
     10 C10        32.2891   -3.2218   -1.7801 C.ar      12 UNK        -0.0944 
     11 C11        32.4389   -2.9297   -3.1399 C.ar      12 UNK        -0.0787 
     12 C12        31.6646   -1.9027   -3.6999 C.ar      12 UNK        -0.0862 
     13 C13        30.7711   -1.1730   -2.9109 C.ar      12 UNK        -0.0733 
     14 C14        30.6417   -1.4745   -1.5531 C.ar      12 UNK        -0.0832 
     15 C15        29.9390   -0.0550   -3.5161 C.3       12 UNK         0.0240 
     16 S16        28.2347   -0.6105   -3.8060 S.3       12 UNK        -0.2522 
     17 C17        28.3880   -1.4792   -5.4103 C.3       12 UNK        -0.0967 
     18 CA         27.5828   -0.8561   -6.5815 C.3       5 UNK         0.0660 
     19 N          26.1392   -1.0754   -6.4494 N.am      5 UNK        -0.4015 
     20 C          25.2420   -0.8242   -7.4177 C.2       4 UNK         0.4946 
     21 O          25.5508   -0.4204   -8.5387 O.2       4 UNK        -0.5353 
     22 CA         23.7467   -1.0027   -7.0869 C.3       4 UNK         0.0277 
     23 CB         23.2648   -2.3922   -7.5317 C.3       4 UNK        -0.1981 
     24 N          23.4209   -0.8071   -5.6726 N.am      4 UNK        -0.4209 
     25 C          23.6833    0.3002   -4.9653 C.2       3 UNK         0.4942 
     26 O          24.1275    1.3356   -5.4645 O.2       3 UNK        -0.5208 
     27 CA         23.4765    0.2325   -3.4394 C.3       3 UNK         0.0250 
     28 CB         22.1384    0.8870   -3.0599 C.3       3 UNK        -0.1990 
     29 N          23.5578   -1.0986   -2.8099 N.am      3 UNK        -0.4232 
     30 C          24.5282   -2.0112   -2.9733 C.2       2 UNK         0.4993 
     31 O          25.3986   -1.9514   -3.8426 O.2       2 UNK        -0.5286 
     32 CA         24.5181   -3.2178   -2.0335 C.3       2 UNK         0.0209 
     33 CB         23.7054   -4.3780   -2.6354 C.3       2 UNK        -0.1931 
     34 N          25.9055   -3.6293   -1.8288 N.am      2 UNK        -0.4546 
     35 C          26.3802   -4.2725   -0.7563 C.2       1 UNK         0.5154 
     36 O          25.6643   -4.6324    0.1802 O.2       1 UNK        -0.5181 
     37 C          27.9336    0.6275   -6.8188 C.2       5 UNK         0.5014 
     38 O          28.8243    0.9148   -7.6178 O.2       5 UNK        -0.5248 
     39 N          27.2111    1.5381   -6.1495 N.am      6 UNK        -0.4434 
     40 CA         27.3727    2.9843   -6.2846 C.3       6 UNK         0.0363 
     41 CB         26.7341    3.6918   -5.0793 C.3       6 UNK        -0.1936 
     42 C          26.7810    3.5026   -7.6023 C.2       6 UNK         0.5081 
     43 O          27.3622    4.4023   -8.2075 O.2       6 UNK        -0.5248 
     44 N          25.6637    2.9053   -8.0431 N.am      7 UNK        -0.4718 
     45 CA         25.0286    3.1881   -9.3338 C.3       7 UNK         0.0273 
     46 CB         23.6411    2.5290   -9.3858 C.3       7 UNK        -0.1935 
     47 C          25.8967    2.7387  -10.5221 C.2       7 UNK         0.5018 
     48 O          26.0112    3.4750  -11.5023 O.2       7 UNK        -0.5186 
     49 N          26.5159    1.5563  -10.3980 N.am      8 UNK        -0.4240 
     50 CA         27.4754    1.0097  -11.3610 C.3       8 UNK         0.0235 
     51 CB         27.6337   -0.4976  -11.0996 C.3       8 UNK        -0.2000 
     52 C          28.8542    1.6959  -11.3195 C.2       8 UNK         0.4941 
     53 O          29.6107    1.5590  -12.2817 O.2       8 UNK        -0.5273 
     54 N          29.1649    2.3816  -10.2076 N.am      9 UNK        -0.4262 
     55 CA         30.4664    2.9558   -9.8401 C.3       9 UNK         0.0264 
     56 CB         30.8547    4.1130  -10.7846 C.3       9 UNK        -0.1955 
     57 C          31.5567    1.8711   -9.7178 C.2       9 UNK         0.5031 
     58 O          32.6757    2.0490  -10.2053 O.2       9 UNK        -0.5390 
     59 N          31.1897    0.7488   -9.0886 N.am      10 UNK        -0.4204 
     60 CA         32.0344   -0.4259   -8.8969 C.3       10 UNK         0.0237 
     61 CB         31.1321   -1.6521   -8.6793 C.3       10 UNK        -0.1985 
     62 C          32.9896   -0.2462   -7.7086 C.2       10 UNK         0.4970 
     63 O          32.6652    0.4675   -6.7566 O.2       10 UNK        -0.4914 
     64 N          34.1278   -0.9469   -7.7807 N.am      11 UNK        -0.4285 
     65 CA         35.1678   -1.0433   -6.7387 C.3       11 UNK         0.1007 
     66 C          35.9838    0.2641   -6.4994 C.2       11 UNK         0.5703 
     67 N          35.8960    1.2692   -7.3629 N.am      11 UNK        -0.7361 
     68 O          36.7398    0.3588   -5.5350 O.2       11 UNK        -0.4986 
     69 C69        34.6544   -1.6758   -5.4108 C.3       12 UNK        -0.0947 
     70 S70        33.7473   -3.2416   -5.6649 S.3       12 UNK        -0.2240 
     71 C71        33.4388   -3.7666   -3.9438 C.3       12 UNK         0.0194 
     72 H72        28.7482   -4.9572   -5.1358 H         1 UNK         0.0906 
     73 H73        30.1749   -5.6223   -4.3355 H         1 UNK         0.0906 
     74 H74        29.7948   -3.9081   -4.1795 H         1 UNK         0.0906 
     75 H75        29.1991   -3.5703   -2.0313 H         1 UNK         0.3140 
     76 H76        27.9778   -5.6230   -0.4310 H         1 UNK         0.1085 
     77 H77        28.0076   -3.8620    1.3749 H         1 UNK         0.0836 
     78 H78        28.5630   -2.6889    0.2129 H         1 UNK         0.0836 
     79 H79        30.8239   -1.9884    1.0446 H         1 UNK         0.0731 
     80 H80        32.2537   -2.9773    0.9221 H         1 UNK         0.0731 
     81 H81        32.8734   -4.0164   -1.3355 H         1 UNK         0.1312 
     82 H82        31.7471   -1.6594   -4.7493 H         1 UNK         0.1406 
     83 H83        29.9513   -0.9063   -0.9440 H         1 UNK         0.1631 
     84 H84        30.3800    0.3120   -4.4450 H         1 UNK         0.0717 
     85 H85        29.9200    0.7948   -2.8323 H         1 UNK         0.0717 
     86 H86        29.4411   -1.5465   -5.6838 H         1 UNK         0.0934 
     87 H87        28.0624   -2.5086   -5.2605 H         1 UNK         0.0934 
     88 H88        27.8831   -1.3878   -7.4871 H         1 UNK         0.0739 
     89 H89        25.8160   -1.3921   -5.5351 H         1 UNK         0.3093 
     90 H90        23.1958   -0.2501   -7.6538 H         1 UNK         0.0818 
     91 H91        23.4742   -2.5570   -8.5897 H         1 UNK         0.0819 
     92 H92        23.7590   -3.1886   -6.9734 H         1 UNK         0.0819 
     93 H93        22.1887   -2.5026   -7.3958 H         1 UNK         0.0819 
     94 H94        23.0805   -1.6134   -5.1697 H         1 UNK         0.3041 
     95 H95        24.2784    0.8285   -2.9990 H         1 UNK         0.0784 
     96 H96        22.0555    1.8875   -3.4876 H         1 UNK         0.0793 
     97 H97        21.2892    0.3063   -3.4225 H         1 UNK         0.0793 
     98 H98        22.0380    0.9925   -1.9794 H         1 UNK         0.0793 
     99 H99        22.8651   -1.2776   -2.0967 H         1 UNK         0.3024 
    100 H100       24.0842   -2.9174   -1.0768 H         1 UNK         0.1171 
    101 H101       22.6694   -4.0841   -2.8091 H         1 UNK         0.0786 
    102 H102       24.1192   -4.7043   -3.5907 H         1 UNK         0.0786 
    103 H103       23.6892   -5.2395   -1.9676 H         1 UNK         0.0786 
    104 H104       26.5454   -3.3221   -2.5518 H         1 UNK         0.2977 
    105 H105       26.4688    1.2164   -5.5419 H         1 UNK         0.3127 
    106 H106       28.4413    3.2114   -6.2847 H         1 UNK         0.0770 
    107 H107       25.6591    3.5159   -5.0268 H         1 UNK         0.0814 
    108 H108       26.8842    4.7705   -5.1385 H         1 UNK         0.0814 
    109 H109       27.1758    3.3539   -4.1417 H         1 UNK         0.0814 
    110 H110       25.2446    2.1854   -7.4686 H         1 UNK         0.2983 
    111 H111       24.8953    4.2695   -9.4110 H         1 UNK         0.0947 
    112 H112       23.1220    2.7919  -10.3084 H         1 UNK         0.0806 
    113 H113       23.0136    2.8552   -8.5561 H         1 UNK         0.0806 
    114 H114       23.7067    1.4416   -9.3506 H         1 UNK         0.0806 
    115 H115       26.2941    0.9715   -9.5946 H         1 UNK         0.3000 
    116 H116       27.0702    1.1452  -12.3661 H         1 UNK         0.0850 
    117 H117       28.3176   -0.9518  -11.8179 H         1 UNK         0.0810 
    118 H118       26.6794   -1.0177  -11.1862 H         1 UNK         0.0810 
    119 H119       28.0302   -0.6921  -10.1021 H         1 UNK         0.0810 
    120 H120       28.4717    2.3949   -9.4713 H         1 UNK         0.3040 
    121 H121       30.3403    3.3743   -8.8403 H         1 UNK         0.0766 
    122 H122       31.0525    3.7627  -11.7979 H         1 UNK         0.0812 
    123 H123       31.7571    4.6150  -10.4337 H         1 UNK         0.0812 
    124 H124       30.0654    4.8629  -10.8359 H         1 UNK         0.0812 
    125 H125       30.2823    0.7403   -8.6218 H         1 UNK         0.3205 
    126 H126       32.6224   -0.5830   -9.8039 H         1 UNK         0.0754 
    127 H127       31.7237   -2.5604   -8.5568 H         1 UNK         0.0769 
    128 H128       30.4662   -1.8101   -9.5280 H         1 UNK         0.0769 
    129 H129       30.5167   -1.5423   -7.7871 H         1 UNK         0.0769 
    130 H130       34.3017   -1.5000   -8.6072 H         1 UNK         0.2981 
    131 H131       35.9008   -1.7385   -7.1489 H         1 UNK         0.0541 
    132 H132       35.2818    1.2075   -8.1592 H         1 UNK         0.3459 
    133 H133       36.4379    2.1040   -7.2049 H         1 UNK         0.3459 
    134 H134       34.0144   -0.9712   -4.8795 H         1 UNK         0.0612 
    135 H135       35.4930   -1.8839   -4.7442 H         1 UNK         0.0612 
    136 H136       33.0754   -4.7947   -3.9709 H         1 UNK         0.0624 
    137 H137       34.3935   -3.7916   -3.4162 H         1 UNK         0.0624 
@<TRIPOS>BOND
     1    1    2 1    
     2    1   72 1    
     3    1   73 1    
     4    1   74 1    
     5    2    3 2    
     6    2    4 am   BACKBONE|DICT|INTERRES
     7    4    5 1    
     8    4   75 1    
     9    5    6 1    
    10    5   35 1    
    11    5   76 1    
    12    6    7 1    
    13    6   77 1    
    14    6   78 1    
    15    7    8 1    
    16    8    9 1    
    17    8   79 1    
    18    8   80 1    
    19    9   10 ar   
    20    9   14 ar   
    21   10   11 ar   
    22   10   81 1    
    23   11   12 ar   
    24   11   71 1    
    25   12   13 ar   
    26   12   82 1    
    27   13   14 ar   
    28   13   15 1    
    29   14   83 1    
    30   15   16 1    
    31   15   84 1    
    32   15   85 1    
    33   16   17 1    
    34   17   18 1    
    35   17   86 1    
    36   17   87 1    
    37   18   19 1    
    38   18   37 1    
    39   18   88 1    
    40   19   20 am   BACKBONE|DICT|INTERRES
    41   19   89 1    
    42   20   21 2    
    43   20   22 1    
    44   22   23 1    
    45   22   24 1    
    46   22   90 1    
    47   23   91 1    
    48   23   92 1    
    49   23   93 1    
    50   24   25 am   BACKBONE|DICT|INTERRES
    51   24   94 1    
    52   25   26 2    
    53   25   27 1    
    54   27   28 1    
    55   27   29 1    
    56   27   95 1    
    57   28   96 1    
    58   28   97 1    
    59   28   98 1    
    60   29   30 am   BACKBONE|DICT|INTERRES
    61   29   99 1    
    62   30   31 2    
    63   30   32 1    
    64   32   33 1    
    65   32   34 1    
    66   32  100 1    
    67   33  101 1    
    68   33  102 1    
    69   33  103 1    
    70   34   35 am   BACKBONE|DICT|INTERRES
    71   34  104 1    
    72   35   36 2    
    73   37   38 2    
    74   37   39 am   BACKBONE|DICT|INTERRES
    75   39   40 1    
    76   39  105 1    
    77   40   41 1    
    78   40   42 1    
    79   40  106 1    
    80   41  107 1    
    81   41  108 1    
    82   41  109 1    
    83   42   43 2    
    84   42   44 am   BACKBONE|DICT|INTERRES
    85   44   45 1    
    86   44  110 1    
    87   45   46 1    
    88   45   47 1    
    89   45  111 1    
    90   46  112 1    
    91   46  113 1    
    92   46  114 1    
    93   47   48 2    
    94   47   49 am   BACKBONE|DICT|INTERRES
    95   49   50 1    
    96   49  115 1    
    97   50   51 1    
    98   50   52 1    
    99   50  116 1    
   100   51  117 1    
   101   51  118 1    
   102   51  119 1    
   103   52   53 2    
   104   52   54 am   BACKBONE|DICT|INTERRES
   105   54   55 1    
   106   54  120 1    
   107   55   56 1    
   108   55   57 1    
   109   55  121 1    
   110   56  122 1    
   111   56  123 1    
   112   56  124 1    
   113   57   58 2    
   114   57   59 am   BACKBONE|DICT|INTERRES
   115   59   60 1    
   116   59  125 1    
   117   60   61 1    
   118   60   62 1    
   119   60  126 1    
   120   61  127 1    
   121   61  128 1    
   122   61  129 1    
   123   62   63 2    
   124   62   64 am   BACKBONE|DICT|INTERRES
   125   64   65 1    
   126   64  130 1    
   127   65   66 1    
   128   65   69 1    
   129   65  131 1    
   130   66   67 am   BACKBONE|DICT|INTERRES
   131   66   68 2    
   132   67  132 1    
   133   67  133 1    
   134   69   70 1    
   135   69  134 1    
   136   69  135 1    
   137   70   71 1    
   138   71  136 1    
   139   71  137 1    
@<TRIPOS>SUBSTRUCTURE
     1 UNK         1 GROUP             0       ****    0 ROOT    
