@<TRIPOS>MOLECULE
3R137
137   139    1
SMALL
USER_CHARGES


@<TRIPOS>ATOM
      1 CA         26.6530   -6.4486    1.7960 C.3       0 UNK        -0.2020 
      2 C          26.3646   -4.9550    1.7929 C.2       0 UNK         0.4855 
      3 O          25.2903   -4.5376    2.2257 O.2       0 UNK        -0.5197 
      4 N          27.3172   -4.1467    1.3108 N.am      1 UNK        -0.4892 
      5 CA         27.2105   -2.6864    1.1925 C.3       1 UNK         0.0835 
      6 C6         28.5935   -2.0165    0.9717 C.3       12 UNK        -0.0855 
      7 S7         29.6160   -2.8101   -0.3207 S.3       12 UNK        -0.2931 
      8 C8         29.3782   -1.6749   -1.7206 C.3       12 UNK         0.0378 
      9 C9         30.0105   -2.2337   -2.9855 C.ar      12 UNK        -0.0802 
     10 C10        31.1936   -1.6855   -3.4869 C.ar      12 UNK        -0.0944 
     11 C11        31.7822   -2.2052   -4.6435 C.ar      12 UNK        -0.0787 
     12 C12        31.1783   -3.2848   -5.2987 C.ar      12 UNK        -0.0862 
     13 C13        29.9901   -3.8386   -4.8099 C.ar      12 UNK        -0.0733 
     14 C14        29.4101   -3.3037   -3.6550 C.ar      12 UNK        -0.0832 
     15 C15        29.3604   -5.0446   -5.4978 C.3       12 UNK         0.0240 
     16 S16        28.4540   -4.6131   -7.0196 S.3       12 UNK        -0.2522 
     17 C17        27.0297   -3.6735   -6.3668 C.3       12 UNK        -0.0967 
     18 CA         26.7217   -2.3770   -7.1567 C.3       5 UNK         0.0660 
     19 N          25.5047   -1.7213   -6.6727 N.am      5 UNK        -0.4015 
     20 C          24.8460   -0.7544   -7.3297 C.2       4 UNK         0.4946 
     21 O          25.1572   -0.3492   -8.4487 O.2       4 UNK        -0.5353 
     22 CA         23.6633   -0.0958   -6.5991 C.3       4 UNK         0.0277 
     23 CB         22.3847   -0.9307   -6.7734 C.3       4 UNK        -0.1981 
     24 N          23.9256    0.1152   -5.1738 N.am      4 UNK        -0.4209 
     25 C          24.8723    0.9344   -4.6928 C.2       3 UNK         0.4942 
     26 O          25.5721    1.6575   -5.3998 O.2       3 UNK        -0.5208 
     27 CA         25.1129    0.9115   -3.1734 C.3       3 UNK         0.0250 
     28 CB         24.2557    1.9798   -2.4770 C.3       3 UNK        -0.1990 
     29 N          24.8732   -0.3938   -2.5472 N.am      3 UNK        -0.4232 
     30 C          25.5076   -1.5305   -2.8647 C.2       2 UNK         0.4993 
     31 O          26.3581   -1.6119   -3.7541 O.2       2 UNK        -0.5286 
     32 CA         25.1198   -2.7846   -2.0611 C.3       2 UNK         0.0209 
     33 CB         25.0795   -4.0370   -2.9554 C.3       2 UNK        -0.1931 
     34 N          26.0365   -3.0263   -0.9456 N.am      2 UNK        -0.4546 
     35 C          26.1809   -2.2404    0.1319 C.2       1 UNK         0.5154 
     36 O          25.5271   -1.2135    0.3214 O.2       1 UNK        -0.5181 
     37 C          27.8970   -1.3820   -7.1655 C.2       5 UNK         0.5014 
     38 O          28.5785   -1.2747   -8.1856 O.2       5 UNK        -0.5248 
     39 N          28.0641   -0.6326   -6.0638 N.am      6 UNK        -0.4434 
     40 CA         29.0704    0.4245   -5.9210 C.3       6 UNK         0.0363 
     41 CB         28.9644    1.0614   -4.5267 C.3       6 UNK        -0.1936 
     42 C          28.9680    1.5019   -7.0149 C.2       6 UNK         0.5081 
     43 O          29.9861    1.8788   -7.5949 O.2       6 UNK        -0.5248 
     44 N          27.7365    1.9455   -7.3037 N.am      7 UNK        -0.4718 
     45 CA         27.4197    2.8830   -8.3798 C.3       7 UNK         0.0273 
     46 CB         25.9624    3.3525   -8.2444 C.3       7 UNK        -0.1935 
     47 C          27.6782    2.2986   -9.7779 C.2       7 UNK         0.5018 
     48 O          28.3169    2.9652  -10.5923 O.2       7 UNK        -0.5186 
     49 N          27.1912    1.0741  -10.0327 N.am      8 UNK        -0.4240 
     50 CA         27.3199    0.3829  -11.3202 C.3       8 UNK         0.0235 
     51 CB         26.4555   -0.8881  -11.3240 C.3       8 UNK        -0.2000 
     52 C          28.7717    0.0457  -11.6931 C.2       8 UNK         0.4941 
     53 O          29.1637    0.2600  -12.8410 O.2       8 UNK        -0.5273 
     54 N          29.5435   -0.4638  -10.7243 N.am      9 UNK        -0.4262 
     55 CA         30.9596   -0.7984  -10.8933 C.3       9 UNK         0.0264 
     56 CB         31.3359   -1.9004   -9.8908 C.3       9 UNK        -0.1955 
     57 C          31.8966    0.4192  -10.7702 C.2       9 UNK         0.5031 
     58 O          33.0703    0.2936  -11.1231 O.2       9 UNK        -0.5390 
     59 N          31.3718    1.5604  -10.2947 N.am      10 UNK        -0.4204 
     60 CA         32.0533    2.8390  -10.0584 C.3       10 UNK         0.0237 
     61 CB         32.5059    3.4774  -11.3891 C.3       10 UNK        -0.1985 
     62 C          33.1909    2.6964   -9.0307 C.2       10 UNK         0.4970 
     63 O          34.3527    2.9679   -9.3427 O.2       10 UNK        -0.4914 
     64 N          32.8257    2.2454   -7.8285 N.am      11 UNK        -0.4285 
     65 CA         33.7369    1.9130   -6.7268 C.3       11 UNK         0.1007 
     66 C          33.1616    2.3320   -5.3454 C.2       11 UNK         0.5703 
     67 N          33.8907    2.0853   -4.2646 N.am      11 UNK        -0.7361 
     68 O          32.0784    2.9030   -5.2362 O.2       11 UNK        -0.4986 
     69 C69        34.1965    0.4284   -6.8020 C.3       12 UNK        -0.0947 
     70 S70        32.8068   -0.7535   -6.7530 S.3       12 UNK        -0.2240 
     71 C71        33.0763   -1.6033   -5.1711 C.3       12 UNK         0.0194 
     72 H72        27.6395   -6.6749    1.3917 H         1 UNK         0.0906 
     73 H73        26.6064   -6.8376    2.8128 H         1 UNK         0.0906 
     74 H74        25.9116   -6.9750    1.1954 H         1 UNK         0.0906 
     75 H75        28.1867   -4.5373    0.9722 H         1 UNK         0.3140 
     76 H76        26.8262   -2.3181    2.1468 H         1 UNK         0.1085 
     77 H77        28.4888   -0.9488    0.7667 H         1 UNK         0.0836 
     78 H78        29.1613   -2.0720    1.9018 H         1 UNK         0.0836 
     79 H79        29.8047   -0.7021   -1.4710 H         1 UNK         0.0731 
     80 H80        28.3153   -1.5103   -1.8907 H         1 UNK         0.0731 
     81 H81        31.6584   -0.8545   -2.9742 H         1 UNK         0.1312 
     82 H82        31.6332   -3.6921   -6.1914 H         1 UNK         0.1406 
     83 H83        28.4965   -3.7267   -3.2613 H         1 UNK         0.1631 
     84 H84        28.6871   -5.5687   -4.8175 H         1 UNK         0.0717 
     85 H85        30.1447   -5.7588   -5.7526 H         1 UNK         0.0717 
     86 H86        26.1619   -4.3342   -6.3919 H         1 UNK         0.0934 
     87 H87        27.1957   -3.4446   -5.3164 H         1 UNK         0.0934 
     88 H88        26.5383   -2.6645   -8.1945 H         1 UNK         0.0739 
     89 H89        25.2380   -1.9272   -5.7204 H         1 UNK         0.3093 
     90 H90        23.4977    0.8822   -7.0564 H         1 UNK         0.0818 
     91 H91        21.5216   -0.4309   -6.3334 H         1 UNK         0.0819 
     92 H92        22.1626   -1.0848   -7.8305 H         1 UNK         0.0819 
     93 H93        22.4747   -1.9153   -6.3128 H         1 UNK         0.0819 
     94 H94        23.3828   -0.4275   -4.5181 H         1 UNK         0.3041 
     95 H95        26.1632    1.1583   -3.0079 H         1 UNK         0.0784 
     96 H96        24.4354    2.9659   -2.9080 H         1 UNK         0.0793 
     97 H97        23.1897    1.7705   -2.5743 H         1 UNK         0.0793 
     98 H98        24.4903    2.0458   -1.4143 H         1 UNK         0.0793 
     99 H99        24.2370   -0.4049   -1.7617 H         1 UNK         0.3024 
    100 H100       24.1180   -2.6353   -1.6522 H         1 UNK         0.1171 
    101 H101       24.6909   -4.8979   -2.4110 H         1 UNK         0.0786 
    102 H102       24.4309   -3.8828   -3.8188 H         1 UNK         0.0786 
    103 H103       26.0677   -4.3012   -3.3321 H         1 UNK         0.0786 
    104 H104       26.6238   -3.8447   -1.0073 H         1 UNK         0.2977 
    105 H105       27.4682   -0.8150   -5.2619 H         1 UNK         0.3127 
    106 H106       30.0473   -0.0529   -6.0072 H         1 UNK         0.0770 
    107 H107       28.0611    1.6610   -4.4211 H         1 UNK         0.0814 
    108 H108       29.8123    1.7206   -4.3399 H         1 UNK         0.0814 
    109 H109       28.9579    0.3093   -3.7407 H         1 UNK         0.0814 
    110 H110       26.9585    1.6280   -6.7303 H         1 UNK         0.2983 
    111 H111       28.0687    3.7535   -8.2617 H         1 UNK         0.0947 
    112 H112       25.7044    4.0619   -9.0319 H         1 UNK         0.0806 
    113 H113       25.7956    3.8521   -7.2898 H         1 UNK         0.0806 
    114 H114       25.2612    2.5197   -8.3099 H         1 UNK         0.0806 
    115 H115       26.6511    0.5975   -9.3148 H         1 UNK         0.3000 
    116 H116       26.9335    1.0538  -12.0904 H         1 UNK         0.0850 
    117 H117       26.5404   -1.4180  -12.2737 H         1 UNK         0.0810 
    118 H118       25.4015   -0.6500  -11.1800 H         1 UNK         0.0810 
    119 H119       26.7529   -1.5795  -10.5347 H         1 UNK         0.0810 
    120 H120       29.1378   -0.6480   -9.8056 H         1 UNK         0.3040 
    121 H121       31.1057   -1.2052  -11.8963 H         1 UNK         0.0766 
    122 H122       31.1179   -1.5981   -8.8678 H         1 UNK         0.0812 
    123 H123       32.3981   -2.1424   -9.9438 H         1 UNK         0.0812 
    124 H124       30.7815   -2.8182  -10.0865 H         1 UNK         0.0812 
    125 H125       30.4059    1.5328   -9.9946 H         1 UNK         0.3205 
    126 H126       31.3111    3.5030   -9.6120 H         1 UNK         0.0754 
    127 H127       32.9317    4.4671  -11.2203 H         1 UNK         0.0769 
    128 H128       31.6662    3.5975  -12.0739 H         1 UNK         0.0769 
    129 H129       33.2657    2.8786  -11.8923 H         1 UNK         0.0769 
    130 H130       31.8371    2.0858   -7.6372 H         1 UNK         0.2981 
    131 H131       34.6266    2.5351   -6.8383 H         1 UNK         0.0541 
    132 H132       34.7935    1.6430   -4.3309 H         1 UNK         0.3459 
    133 H133       33.5352    2.3654   -3.3644 H         1 UNK         0.3459 
    134 H134       34.9179    0.1968   -6.0176 H         1 UNK         0.0612 
    135 H135       34.7291    0.2642   -7.7398 H         1 UNK         0.0612 
    136 H136       33.8227   -2.3873   -5.3050 H         1 UNK         0.0624 
    137 H137       33.4881   -0.9001   -4.4458 H         1 UNK         0.0624 
@<TRIPOS>BOND
     1    1    2 1    
     2    1   72 1    
     3    1   73 1    
     4    1   74 1    
     5    2    3 2    
     6    2    4 am   BACKBONE|DICT|INTERRES
     7    4    5 1    
     8    4   75 1    
     9    5    6 1    
    10    5   35 1    
    11    5   76 1    
    12    6    7 1    
    13    6   77 1    
    14    6   78 1    
    15    7    8 1    
    16    8    9 1    
    17    8   79 1    
    18    8   80 1    
    19    9   10 ar   
    20    9   14 ar   
    21   10   11 ar   
    22   10   81 1    
    23   11   12 ar   
    24   11   71 1    
    25   12   13 ar   
    26   12   82 1    
    27   13   14 ar   
    28   13   15 1    
    29   14   83 1    
    30   15   16 1    
    31   15   84 1    
    32   15   85 1    
    33   16   17 1    
    34   17   18 1    
    35   17   86 1    
    36   17   87 1    
    37   18   19 1    
    38   18   37 1    
    39   18   88 1    
    40   19   20 am   BACKBONE|DICT|INTERRES
    41   19   89 1    
    42   20   21 2    
    43   20   22 1    
    44   22   23 1    
    45   22   24 1    
    46   22   90 1    
    47   23   91 1    
    48   23   92 1    
    49   23   93 1    
    50   24   25 am   BACKBONE|DICT|INTERRES
    51   24   94 1    
    52   25   26 2    
    53   25   27 1    
    54   27   28 1    
    55   27   29 1    
    56   27   95 1    
    57   28   96 1    
    58   28   97 1    
    59   28   98 1    
    60   29   30 am   BACKBONE|DICT|INTERRES
    61   29   99 1    
    62   30   31 2    
    63   30   32 1    
    64   32   33 1    
    65   32   34 1    
    66   32  100 1    
    67   33  101 1    
    68   33  102 1    
    69   33  103 1    
    70   34   35 am   BACKBONE|DICT|INTERRES
    71   34  104 1    
    72   35   36 2    
    73   37   38 2    
    74   37   39 am   BACKBONE|DICT|INTERRES
    75   39   40 1    
    76   39  105 1    
    77   40   41 1    
    78   40   42 1    
    79   40  106 1    
    80   41  107 1    
    81   41  108 1    
    82   41  109 1    
    83   42   43 2    
    84   42   44 am   BACKBONE|DICT|INTERRES
    85   44   45 1    
    86   44  110 1    
    87   45   46 1    
    88   45   47 1    
    89   45  111 1    
    90   46  112 1    
    91   46  113 1    
    92   46  114 1    
    93   47   48 2    
    94   47   49 am   BACKBONE|DICT|INTERRES
    95   49   50 1    
    96   49  115 1    
    97   50   51 1    
    98   50   52 1    
    99   50  116 1    
   100   51  117 1    
   101   51  118 1    
   102   51  119 1    
   103   52   53 2    
   104   52   54 am   BACKBONE|DICT|INTERRES
   105   54   55 1    
   106   54  120 1    
   107   55   56 1    
   108   55   57 1    
   109   55  121 1    
   110   56  122 1    
   111   56  123 1    
   112   56  124 1    
   113   57   58 2    
   114   57   59 am   BACKBONE|DICT|INTERRES
   115   59   60 1    
   116   59  125 1    
   117   60   61 1    
   118   60   62 1    
   119   60  126 1    
   120   61  127 1    
   121   61  128 1    
   122   61  129 1    
   123   62   63 2    
   124   62   64 am   BACKBONE|DICT|INTERRES
   125   64   65 1    
   126   64  130 1    
   127   65   66 1    
   128   65   69 1    
   129   65  131 1    
   130   66   67 am   BACKBONE|DICT|INTERRES
   131   66   68 2    
   132   67  132 1    
   133   67  133 1    
   134   69   70 1    
   135   69  134 1    
   136   69  135 1    
   137   70   71 1    
   138   71  136 1    
   139   71  137 1    
@<TRIPOS>SUBSTRUCTURE
     1 UNK         1 GROUP             0       ****    0 ROOT    
