@<TRIPOS>MOLECULE
3R137
137   139    1
SMALL
USER_CHARGES


@<TRIPOS>ATOM
      1 CA         26.8654   -3.8863   -7.2824 C.3       0 UNK        -0.2020 
      2 C          26.6423   -4.6906   -6.0113 C.2       0 UNK         0.4855 
      3 O          26.0366   -5.7616   -6.0562 O.2       0 UNK        -0.5197 
      4 N          27.1167   -4.1761   -4.8712 N.am      1 UNK        -0.4892 
      5 CA         27.0773   -4.8163   -3.5496 C.3       1 UNK         0.0835 
      6 C6         28.1729   -4.2343   -2.6212 C.3       12 UNK        -0.0855 
      7 S7         29.8502   -4.5488   -3.2649 S.3       12 UNK        -0.2931 
      8 C8         30.8706   -3.9447   -1.8859 C.3       12 UNK         0.0378 
      9 C9         31.0024   -2.4293   -1.9059 C.ar      12 UNK        -0.0802 
     10 C10        32.0278   -1.8297   -2.6434 C.ar      12 UNK        -0.0944 
     11 C11        32.1795   -0.4406   -2.6510 C.ar      12 UNK        -0.0787 
     12 C12        31.2923    0.3501   -1.9141 C.ar      12 UNK        -0.0862 
     13 C13        30.2587   -0.2365   -1.1744 C.ar      12 UNK        -0.0733 
     14 C14        30.1212   -1.6280   -1.1722 C.ar      12 UNK        -0.0832 
     15 C15        29.3153    0.6298   -0.3466 C.3       12 UNK         0.0240 
     16 S16        27.6717    0.8275   -1.1146 S.3       12 UNK        -0.2522 
     17 C17        28.0845    1.6607   -2.6833 C.3       12 UNK        -0.0967 
     18 CA         27.6998    0.7675   -3.8990 C.3       5 UNK         0.0660 
     19 N          26.2472    0.7162   -4.1027 N.am      5 UNK        -0.4015 
     20 C          25.4610    1.6870   -4.5855 C.2       4 UNK         0.4946 
     21 O          25.8933    2.7531   -5.0311 O.2       4 UNK        -0.5353 
     22 CA         23.9334    1.4489   -4.5175 C.3       4 UNK         0.0277 
     23 CB         23.1346    2.6246   -5.1140 C.3       4 UNK        -0.1981 
     24 N          23.4521    0.2038   -5.1330 N.am      4 UNK        -0.4209 
     25 C          23.6736   -1.0446   -4.6996 C.2       3 UNK         0.4942 
     26 O          24.4347   -1.3148   -3.7675 O.2       3 UNK        -0.5208 
     27 CA         22.9095   -2.1683   -5.4282 C.3       3 UNK         0.0250 
     28 CB         23.2551   -2.2212   -6.9249 C.3       3 UNK        -0.1990 
     29 N          23.2147   -3.4734   -4.8451 N.am      3 UNK        -0.4232 
     30 C          22.6383   -3.9992   -3.7566 C.2       2 UNK         0.4993 
     31 O          21.6625   -3.5094   -3.1862 O.2       2 UNK        -0.5286 
     32 CA         23.2678   -5.2943   -3.2117 C.3       2 UNK         0.0209 
     33 CB         22.5303   -6.5270   -3.7595 C.3       2 UNK        -0.1931 
     34 N          24.6931   -5.3954   -3.5451 N.am      2 UNK        -0.4546 
     35 C          25.6685   -4.7204   -2.9223 C.2       1 UNK         0.5154 
     36 O          25.4808   -4.0350   -1.9154 O.2       1 UNK        -0.5181 
     37 C          28.4446    1.0939   -5.2119 C.2       5 UNK         0.5014 
     38 O          28.1497    0.4701   -6.2346 O.2       5 UNK        -0.5248 
     39 N          29.3962    2.0384   -5.1741 N.am      6 UNK        -0.4434 
     40 CA         30.3180    2.3845   -6.2589 C.3       6 UNK         0.0363 
     41 CB         31.2883    3.4712   -5.7713 C.3       6 UNK        -0.1936 
     42 C          29.6537    2.8111   -7.5752 C.2       6 UNK         0.5081 
     43 O          30.2522    2.6024   -8.6296 O.2       6 UNK        -0.5248 
     44 N          28.4275    3.3476   -7.5050 N.am      7 UNK        -0.4718 
     45 CA         27.6106    3.7041   -8.6686 C.3       7 UNK         0.0273 
     46 CB         26.3682    4.4761   -8.1957 C.3       7 UNK        -0.1935 
     47 C          27.1960    2.4917   -9.5238 C.2       7 UNK         0.5018 
     48 O          26.9424    2.6627  -10.7169 O.2       7 UNK        -0.5186 
     49 N          27.1400    1.3037   -8.9073 N.am      8 UNK        -0.4240 
     50 CA         26.8278    0.0340   -9.5604 C.3       8 UNK         0.0235 
     51 CB         25.6638   -0.6306   -8.8131 C.3       8 UNK        -0.2000 
     52 C          28.0490   -0.8966   -9.5972 C.2       8 UNK         0.4941 
     53 O          28.2676   -1.5584  -10.6119 O.2       8 UNK        -0.5273 
     54 N          28.8190   -0.9420   -8.5001 N.am      9 UNK        -0.4262 
     55 CA         29.9852   -1.8130   -8.3328 C.3       9 UNK         0.0264 
     56 CB         30.3088   -1.9431   -6.8343 C.3       9 UNK        -0.1955 
     57 C          31.2291   -1.3610   -9.1186 C.2       9 UNK         0.5031 
     58 O          32.1033   -2.1958   -9.3560 O.2       9 UNK        -0.5390 
     59 N          31.2939   -0.0744   -9.5023 N.am      10 UNK        -0.4204 
     60 CA         32.3889    0.5761  -10.2353 C.3       10 UNK         0.0237 
     61 CB         32.4896    0.0282  -11.6755 C.3       10 UNK        -0.1985 
     62 C          33.7227    0.5157   -9.4654 C.2       10 UNK         0.4970 
     63 O          34.7332    0.0616  -10.0059 O.2       10 UNK        -0.4914 
     64 N          33.6864    0.9626   -8.2030 N.am      11 UNK        -0.4285 
     65 CA         34.8254    0.9496   -7.2677 C.3       11 UNK         0.1007 
     66 C          36.0062    1.8913   -7.6495 C.2       11 UNK         0.5703 
     67 N          35.8235    2.8658   -8.5331 N.am      11 UNK        -0.7361 
     68 O          37.1096    1.7307   -7.1333 O.2       11 UNK        -0.4986 
     69 C69        34.3782    1.2192   -5.8063 C.3       12 UNK        -0.0947 
     70 S70        33.0713    0.0905   -5.2212 S.3       12 UNK        -0.2240 
     71 C71        33.3230    0.2010   -3.4244 C.3       12 UNK         0.0194 
     72 H72        27.7227   -4.2796   -7.8278 H         1 UNK         0.0906 
     73 H73        25.9940   -3.9507   -7.9332 H         1 UNK         0.0906 
     74 H74        27.0509   -2.8353   -7.0644 H         1 UNK         0.0906 
     75 H75        27.5959   -3.2879   -4.8933 H         1 UNK         0.3140 
     76 H76        27.2876   -5.8810   -3.6769 H         1 UNK         0.1085 
     77 H77        28.1041   -4.6779   -1.6258 H         1 UNK         0.0836 
     78 H78        28.0352   -3.1589   -2.4932 H         1 UNK         0.0836 
     79 H79        30.4549   -4.2836   -0.9356 H         1 UNK         0.0731 
     80 H80        31.8600   -4.3989   -1.9595 H         1 UNK         0.0731 
     81 H81        32.7136   -2.4448   -3.2103 H         1 UNK         0.1312 
     82 H82        31.4161    1.4244   -1.9055 H         1 UNK         0.1406 
     83 H83        29.3297   -2.0856   -0.5939 H         1 UNK         0.1631 
     84 H84        29.7495    1.6160   -0.1744 H         1 UNK         0.0717 
     85 H85        29.1879    0.1819    0.6399 H         1 UNK         0.0717 
     86 H86        27.5674    2.6212   -2.7221 H         1 UNK         0.0934 
     87 H87        29.1460    1.8984   -2.6574 H         1 UNK         0.0934 
     88 H88        28.0060   -0.2550   -3.6708 H         1 UNK         0.0739 
     89 H89        25.7805   -0.1396   -3.8056 H         1 UNK         0.3093 
     90 H90        23.6873    1.3979   -3.4547 H         1 UNK         0.0818 
     91 H91        22.0616    2.4897   -4.9763 H         1 UNK         0.0819 
     92 H92        23.4010    3.5661   -4.6314 H         1 UNK         0.0819 
     93 H93        23.3267    2.7406   -6.1815 H         1 UNK         0.0819 
     94 H94        22.8374    0.3237   -5.9249 H         1 UNK         0.3041 
     95 H95        21.8408   -1.9695   -5.3222 H         1 UNK         0.0784 
     96 H96        22.6971   -3.0103   -7.4298 H         1 UNK         0.0793 
     97 H97        23.0103   -1.2873   -7.4313 H         1 UNK         0.0793 
     98 H98        24.3146   -2.4164   -7.0786 H         1 UNK         0.0793 
     99 H99        24.0310   -3.9435   -5.2052 H         1 UNK         0.3024 
    100 H100       23.1592   -5.2804   -2.1246 H         1 UNK         0.1171 
    101 H101       22.6107   -6.5976   -4.8451 H         1 UNK         0.0786 
    102 H102       21.4684   -6.4876   -3.5124 H         1 UNK         0.0786 
    103 H103       22.9273   -7.4482   -3.3326 H         1 UNK         0.0786 
    104 H104       24.9422   -5.8974   -4.3929 H         1 UNK         0.2977 
    105 H105       29.5417    2.5284   -4.3046 H         1 UNK         0.3127 
    106 H106       30.8924    1.4857   -6.4825 H         1 UNK         0.0770 
    107 H107       30.7644    4.3922   -5.5124 H         1 UNK         0.0814 
    108 H108       32.0190    3.7189   -6.5426 H         1 UNK         0.0814 
    109 H109       31.8447    3.1431   -4.8932 H         1 UNK         0.0814 
    110 H110       27.9947    3.4461   -6.5960 H         1 UNK         0.2983 
    111 H111       28.2052    4.3628   -9.3055 H         1 UNK         0.0947 
    112 H112       25.7581    4.7909   -9.0435 H         1 UNK         0.0806 
    113 H113       26.6439    5.3753   -7.6446 H         1 UNK         0.0806 
    114 H114       25.7365    3.8660   -7.5487 H         1 UNK         0.0806 
    115 H115       27.3848    1.2607   -7.9232 H         1 UNK         0.3000 
    116 H116       26.5145    0.1997  -10.5935 H         1 UNK         0.0850 
    117 H117       25.8905   -0.7594   -7.7542 H         1 UNK         0.0810 
    118 H118       24.7576   -0.0295   -8.8876 H         1 UNK         0.0810 
    119 H119       25.4377   -1.6127   -9.2309 H         1 UNK         0.0810 
    120 H120       28.5531   -0.3898   -7.6844 H         1 UNK         0.3040 
    121 H121       29.7192   -2.8051   -8.7037 H         1 UNK         0.0766 
    122 H122       29.4749   -2.3720   -6.2798 H         1 UNK         0.0812 
    123 H123       30.5427   -0.9776   -6.3875 H         1 UNK         0.0812 
    124 H124       31.1704   -2.5922   -6.6717 H         1 UNK         0.0812 
    125 H125       30.5373    0.5444   -9.2344 H         1 UNK         0.3205 
    126 H126       32.1275    1.6325  -10.3100 H         1 UNK         0.0754 
    127 H127       33.2301    0.5832  -12.2528 H         1 UNK         0.0769 
    128 H128       31.5377    0.1168  -12.1993 H         1 UNK         0.0769 
    129 H129       32.7847   -1.0214  -11.6933 H         1 UNK         0.0769 
    130 H130       32.8159    1.3137   -7.8363 H         1 UNK         0.2981 
    131 H131       35.2349   -0.0621   -7.2970 H         1 UNK         0.0541 
    132 H132       36.5974    3.4651   -8.7730 H         1 UNK         0.3459 
    133 H133       34.9241    3.0056   -8.9636 H         1 UNK         0.3459 
    134 H134       34.0192    2.2437   -5.6996 H         1 UNK         0.0612 
    135 H135       35.2321    1.1238   -5.1325 H         1 UNK         0.0612 
    136 H136       33.4311    1.2500   -3.1439 H         1 UNK         0.0624 
    137 H137       34.2617   -0.2893   -3.1620 H         1 UNK         0.0624 
@<TRIPOS>BOND
     1    1    2 1    
     2    1   72 1    
     3    1   73 1    
     4    1   74 1    
     5    2    3 2    
     6    2    4 am   BACKBONE|DICT|INTERRES
     7    4    5 1    
     8    4   75 1    
     9    5    6 1    
    10    5   35 1    
    11    5   76 1    
    12    6    7 1    
    13    6   77 1    
    14    6   78 1    
    15    7    8 1    
    16    8    9 1    
    17    8   79 1    
    18    8   80 1    
    19    9   10 ar   
    20    9   14 ar   
    21   10   11 ar   
    22   10   81 1    
    23   11   12 ar   
    24   11   71 1    
    25   12   13 ar   
    26   12   82 1    
    27   13   14 ar   
    28   13   15 1    
    29   14   83 1    
    30   15   16 1    
    31   15   84 1    
    32   15   85 1    
    33   16   17 1    
    34   17   18 1    
    35   17   86 1    
    36   17   87 1    
    37   18   19 1    
    38   18   37 1    
    39   18   88 1    
    40   19   20 am   BACKBONE|DICT|INTERRES
    41   19   89 1    
    42   20   21 2    
    43   20   22 1    
    44   22   23 1    
    45   22   24 1    
    46   22   90 1    
    47   23   91 1    
    48   23   92 1    
    49   23   93 1    
    50   24   25 am   BACKBONE|DICT|INTERRES
    51   24   94 1    
    52   25   26 2    
    53   25   27 1    
    54   27   28 1    
    55   27   29 1    
    56   27   95 1    
    57   28   96 1    
    58   28   97 1    
    59   28   98 1    
    60   29   30 am   BACKBONE|DICT|INTERRES
    61   29   99 1    
    62   30   31 2    
    63   30   32 1    
    64   32   33 1    
    65   32   34 1    
    66   32  100 1    
    67   33  101 1    
    68   33  102 1    
    69   33  103 1    
    70   34   35 am   BACKBONE|DICT|INTERRES
    71   34  104 1    
    72   35   36 2    
    73   37   38 2    
    74   37   39 am   BACKBONE|DICT|INTERRES
    75   39   40 1    
    76   39  105 1    
    77   40   41 1    
    78   40   42 1    
    79   40  106 1    
    80   41  107 1    
    81   41  108 1    
    82   41  109 1    
    83   42   43 2    
    84   42   44 am   BACKBONE|DICT|INTERRES
    85   44   45 1    
    86   44  110 1    
    87   45   46 1    
    88   45   47 1    
    89   45  111 1    
    90   46  112 1    
    91   46  113 1    
    92   46  114 1    
    93   47   48 2    
    94   47   49 am   BACKBONE|DICT|INTERRES
    95   49   50 1    
    96   49  115 1    
    97   50   51 1    
    98   50   52 1    
    99   50  116 1    
   100   51  117 1    
   101   51  118 1    
   102   51  119 1    
   103   52   53 2    
   104   52   54 am   BACKBONE|DICT|INTERRES
   105   54   55 1    
   106   54  120 1    
   107   55   56 1    
   108   55   57 1    
   109   55  121 1    
   110   56  122 1    
   111   56  123 1    
   112   56  124 1    
   113   57   58 2    
   114   57   59 am   BACKBONE|DICT|INTERRES
   115   59   60 1    
   116   59  125 1    
   117   60   61 1    
   118   60   62 1    
   119   60  126 1    
   120   61  127 1    
   121   61  128 1    
   122   61  129 1    
   123   62   63 2    
   124   62   64 am   BACKBONE|DICT|INTERRES
   125   64   65 1    
   126   64  130 1    
   127   65   66 1    
   128   65   69 1    
   129   65  131 1    
   130   66   67 am   BACKBONE|DICT|INTERRES
   131   66   68 2    
   132   67  132 1    
   133   67  133 1    
   134   69   70 1    
   135   69  134 1    
   136   69  135 1    
   137   70   71 1    
   138   71  136 1    
   139   71  137 1    
@<TRIPOS>SUBSTRUCTURE
     1 UNK         1 GROUP             0       ****    0 ROOT    
