@<TRIPOS>MOLECULE
3R137
137   139    1
SMALL
USER_CHARGES


@<TRIPOS>ATOM
      1 CA         28.2676   -5.9586   -6.1452 C.3       0 UNK        -0.2020 
      2 C          28.3121   -5.1358   -4.8675 C.2       0 UNK         0.4855 
      3 O          27.8938   -3.9781   -4.8814 O.2       0 UNK        -0.5197 
      4 N          28.7992   -5.7277   -3.7654 N.am      1 UNK        -0.4892 
      5 CA         28.9264   -5.1197   -2.4326 C.3       1 UNK         0.0835 
      6 C6         30.1006   -4.1016   -2.3772 C.3       12 UNK        -0.0855 
      7 S7         30.5905   -3.6951   -0.6637 S.3       12 UNK        -0.2931 
      8 C8         31.8436   -2.3981   -0.9186 C.3       12 UNK         0.0378 
      9 C9         31.2883   -1.2040   -1.6816 C.ar      12 UNK        -0.0802 
     10 C10        31.6981   -0.9658   -2.9950 C.ar      12 UNK        -0.0944 
     11 C11        31.1751    0.1088   -3.7168 C.ar      12 UNK        -0.0787 
     12 C12        30.2626    0.9701   -3.1030 C.ar      12 UNK        -0.0862 
     13 C13        29.8337    0.7425   -1.7885 C.ar      12 UNK        -0.0733 
     14 C14        30.3596   -0.3463   -1.0840 C.ar      12 UNK        -0.0832 
     15 C15        28.8235    1.6520   -1.0863 C.3       12 UNK         0.0240 
     16 S16        27.7418    2.6349   -2.1849 S.3       12 UNK        -0.2522 
     17 C17        26.7638    1.3471   -3.0351 C.3       12 UNK        -0.0967 
     18 CA         26.8541    1.4185   -4.5822 C.3       5 UNK         0.0660 
     19 N          26.4958    0.1313   -5.2001 N.am      5 UNK        -0.4015 
     20 C          26.6094   -0.1645   -6.5058 C.2       4 UNK         0.4946 
     21 O          26.9748    0.6539   -7.3501 O.2       4 UNK        -0.5353 
     22 CA         26.2347   -1.5795   -6.9784 C.3       4 UNK         0.0277 
     23 CB         27.4283   -2.2662   -7.6618 C.3       4 UNK        -0.1981 
     24 N          25.7334   -2.4370   -5.9021 N.am      4 UNK        -0.4209 
     25 C          24.4443   -2.5140   -5.5448 C.2       3 UNK         0.4942 
     26 O          23.5466   -1.8628   -6.0805 O.2       3 UNK        -0.5208 
     27 CA         24.0940   -3.4583   -4.3823 C.3       3 UNK         0.0250 
     28 CB         24.0079   -4.9116   -4.8758 C.3       3 UNK        -0.1990 
     29 N          25.0212   -3.3872   -3.2505 N.am      3 UNK        -0.4232 
     30 C          25.3126   -2.2955   -2.5326 C.2       2 UNK         0.4993 
     31 O          24.8578   -1.1798   -2.7808 O.2       2 UNK        -0.5286 
     32 CA         26.2925   -2.4555   -1.3544 C.3       2 UNK         0.0209 
     33 CB         25.5687   -2.9540   -0.0887 C.3       2 UNK        -0.1931 
     34 N          27.4771   -3.2688   -1.6643 N.am      2 UNK        -0.4546 
     35 C          27.5582   -4.5770   -1.9507 C.2       1 UNK         0.5154 
     36 O          26.5942   -5.3458   -1.9112 O.2       1 UNK        -0.5181 
     37 C          26.0602    2.6197   -5.1496 C.2       5 UNK         0.5014 
     38 O          26.5704    3.7405   -5.1425 O.2       5 UNK        -0.5248 
     39 N          24.8505    2.3664   -5.6728 N.am      6 UNK        -0.4434 
     40 CA         24.0274    3.3464   -6.3873 C.3       6 UNK         0.0363 
     41 CB         22.6436    2.7374   -6.6645 C.3       6 UNK        -0.1936 
     42 C          24.6654    3.8518   -7.6974 C.2       6 UNK         0.5081 
     43 O          24.4070    4.9915   -8.0857 O.2       6 UNK        -0.5248 
     44 N          25.4817    3.0103   -8.3470 N.am      7 UNK        -0.4718 
     45 CA         26.2660    3.3606   -9.5329 C.3       7 UNK         0.0273 
     46 CB         26.2253    2.1915  -10.5319 C.3       7 UNK        -0.1935 
     47 C          27.7193    3.6921   -9.1606 C.2       7 UNK         0.5018 
     48 O          28.2976    4.6038   -9.7521 O.2       7 UNK        -0.5186 
     49 N          28.2802    2.9313   -8.2067 N.am      8 UNK        -0.4240 
     50 CA         29.6635    2.9671   -7.7144 C.3       8 UNK         0.0235 
     51 CB         29.9793    4.3106   -7.0258 C.3       8 UNK        -0.2000 
     52 C          30.7069    2.5775   -8.7827 C.2       8 UNK         0.4941 
     53 O          31.8772    2.9493   -8.6686 O.2       8 UNK        -0.5273 
     54 N          30.2758    1.8233   -9.8029 N.am      9 UNK        -0.4262 
     55 CA         31.0791    1.3808  -10.9419 C.3       9 UNK         0.0264 
     56 CB         30.1338    1.0661  -12.1167 C.3       9 UNK        -0.1955 
     57 C          31.9676    0.1840  -10.5626 C.2       9 UNK         0.5031 
     58 O          31.6937   -0.9428  -10.9810 O.2       9 UNK        -0.5390 
     59 N          32.9846    0.4440   -9.7292 N.am      10 UNK        -0.4204 
     60 CA         33.9885   -0.4776   -9.1678 C.3       10 UNK         0.0237 
     61 CB         34.8155   -1.1591  -10.2758 C.3       10 UNK        -0.1985 
     62 C          33.4339   -1.5160   -8.1726 C.2       10 UNK         0.4970 
     63 O          34.1130   -1.8178   -7.1910 O.2       10 UNK        -0.4914 
     64 N          32.2178   -2.0140   -8.4232 N.am      11 UNK        -0.4285 
     65 CA         31.4226   -2.9009   -7.5575 C.3       11 UNK         0.1007 
     66 C          31.9675   -4.3565   -7.4412 C.2       11 UNK         0.5703 
     67 N          32.8552   -4.8005   -8.3234 N.am      11 UNK        -0.7361 
     68 O          31.5613   -5.1089   -6.5593 O.2       11 UNK        -0.4986 
     69 C69        31.0981   -2.2718   -6.1715 C.3       12 UNK        -0.0947 
     70 S70        30.4432   -0.5676   -6.2813 S.3       12 UNK        -0.2240 
     71 C71        31.5702    0.3281   -5.1685 C.3       12 UNK         0.0194 
     72 H72        28.7797   -6.9141   -6.0333 H         1 UNK         0.0906 
     73 H73        27.2343   -6.1527   -6.4312 H         1 UNK         0.0906 
     74 H74        28.7485   -5.4119   -6.9560 H         1 UNK         0.0906 
     75 H75        29.0891   -6.6943   -3.8212 H         1 UNK         0.3140 
     76 H76        29.1690   -5.9410   -1.7561 H         1 UNK         0.1085 
     77 H77        29.8610   -3.1975   -2.9398 H         1 UNK         0.0836 
     78 H78        30.9764   -4.5266   -2.8707 H         1 UNK         0.0836 
     79 H79        32.7003   -2.8293   -1.4390 H         1 UNK         0.0731 
     80 H80        32.2125   -2.0653    0.0527 H         1 UNK         0.0731 
     81 H81        32.4133   -1.6293   -3.4595 H         1 UNK         0.1312 
     82 H82        29.8831    1.8113   -3.6640 H         1 UNK         0.1406 
     83 H83        30.0434   -0.5341   -0.0664 H         1 UNK         0.1631 
     84 H84        29.3742    2.3415   -0.4453 H         1 UNK         0.0717 
     85 H85        28.1878    1.0594   -0.4262 H         1 UNK         0.0717 
     86 H86        27.1279    0.3772   -2.6962 H         1 UNK         0.0934 
     87 H87        25.7271    1.4080   -2.6977 H         1 UNK         0.0934 
     88 H88        27.8973    1.5879   -4.8548 H         1 UNK         0.0739 
     89 H89        26.1278   -0.5764   -4.5779 H         1 UNK         0.3093 
     90 H90        25.4556   -1.4579   -7.7340 H         1 UNK         0.0818 
     91 H91        27.8148   -1.6634   -8.4848 H         1 UNK         0.0819 
     92 H92        28.2484   -2.4266   -6.9642 H         1 UNK         0.0819 
     93 H93        27.1462   -3.2353   -8.0728 H         1 UNK         0.0819 
     94 H94        26.4276   -3.0050   -5.4155 H         1 UNK         0.3041 
     95 H95        23.1101   -3.1654   -4.0104 H         1 UNK         0.0784 
     96 H96        23.3123   -5.0011   -5.7116 H         1 UNK         0.0793 
     97 H97        24.9768   -5.2802   -5.2150 H         1 UNK         0.0793 
     98 H98        23.6541   -5.5773   -4.0883 H         1 UNK         0.0793 
     99 H99        25.4644   -4.2548   -2.9592 H         1 UNK         0.3024 
    100 H100       26.6733   -1.4573   -1.1323 H         1 UNK         0.1171 
    101 H101       26.2507   -3.0134    0.7595 H         1 UNK         0.0786 
    102 H102       24.7637   -2.2727    0.1899 H         1 UNK         0.0786 
    103 H103       25.1220   -3.9385   -0.2296 H         1 UNK         0.0786 
    104 H104       28.3408   -2.7476   -1.7381 H         1 UNK         0.2977 
    105 H105       24.4991    1.4204   -5.6311 H         1 UNK         0.3127 
    106 H106       23.8969    4.2110   -5.7329 H         1 UNK         0.0770 
    107 H107       22.7111    1.8507   -7.2962 H         1 UNK         0.0814 
    108 H108       21.9984    3.4532   -7.1760 H         1 UNK         0.0814 
    109 H109       22.1406    2.4548   -5.7395 H         1 UNK         0.0814 
    110 H110       25.6741    2.1043   -7.9342 H         1 UNK         0.2983 
    111 H111       25.8395    4.2389  -10.0231 H         1 UNK         0.0947 
    112 H112       26.8129    2.4178  -11.4228 H         1 UNK         0.0806 
    113 H113       25.2055    1.9902  -10.8602 H         1 UNK         0.0806 
    114 H114       26.6238    1.2719  -10.1013 H         1 UNK         0.0806 
    115 H115       27.7222    2.1626   -7.8339 H         1 UNK         0.3000 
    116 H116       29.7165    2.1939   -6.9487 H         1 UNK         0.0850 
    117 H117       30.9478    4.2755   -6.5256 H         1 UNK         0.0810 
    118 H118       29.2328    4.5504   -6.2682 H         1 UNK         0.0810 
    119 H119       30.0121    5.1342   -7.7394 H         1 UNK         0.0810 
    120 H120       29.3121    1.5238   -9.7895 H         1 UNK         0.3040 
    121 H121       31.7357    2.1969  -11.2521 H         1 UNK         0.0766 
    122 H122       29.5616    1.9460  -12.4115 H         1 UNK         0.0812 
    123 H123       29.4261    0.2739  -11.8684 H         1 UNK         0.0812 
    124 H124       30.6961    0.7382  -12.9921 H         1 UNK         0.0812 
    125 H125       33.0234    1.3943   -9.3700 H         1 UNK         0.3205 
    126 H126       34.6703    0.1553   -8.5972 H         1 UNK         0.0754 
    127 H127       35.6219   -1.7557   -9.8471 H         1 UNK         0.0769 
    128 H128       35.2739   -0.4234  -10.9369 H         1 UNK         0.0769 
    129 H129       34.2096   -1.8280  -10.8877 H         1 UNK         0.0769 
    130 H130       31.7830   -1.7382   -9.2998 H         1 UNK         0.2981 
    131 H131       30.4721   -3.0128   -8.0794 H         1 UNK         0.0541 
    132 H132       33.1905   -4.1975   -9.0571 H         1 UNK         0.3459 
    133 H133       33.1958   -5.7457   -8.2473 H         1 UNK         0.3459 
    134 H134       30.3588   -2.8732   -5.6408 H         1 UNK         0.0612 
    135 H135       31.9934   -2.2843   -5.5520 H         1 UNK         0.0612 
    136 H136       32.6001    0.0135   -5.3439 H         1 UNK         0.0624 
    137 H137       31.5323    1.3914   -5.4088 H         1 UNK         0.0624 
@<TRIPOS>BOND
     1    1    2 1    
     2    1   72 1    
     3    1   73 1    
     4    1   74 1    
     5    2    3 2    
     6    2    4 am   BACKBONE|DICT|INTERRES
     7    4    5 1    
     8    4   75 1    
     9    5    6 1    
    10    5   35 1    
    11    5   76 1    
    12    6    7 1    
    13    6   77 1    
    14    6   78 1    
    15    7    8 1    
    16    8    9 1    
    17    8   79 1    
    18    8   80 1    
    19    9   10 ar   
    20    9   14 ar   
    21   10   11 ar   
    22   10   81 1    
    23   11   12 ar   
    24   11   71 1    
    25   12   13 ar   
    26   12   82 1    
    27   13   14 ar   
    28   13   15 1    
    29   14   83 1    
    30   15   16 1    
    31   15   84 1    
    32   15   85 1    
    33   16   17 1    
    34   17   18 1    
    35   17   86 1    
    36   17   87 1    
    37   18   19 1    
    38   18   37 1    
    39   18   88 1    
    40   19   20 am   BACKBONE|DICT|INTERRES
    41   19   89 1    
    42   20   21 2    
    43   20   22 1    
    44   22   23 1    
    45   22   24 1    
    46   22   90 1    
    47   23   91 1    
    48   23   92 1    
    49   23   93 1    
    50   24   25 am   BACKBONE|DICT|INTERRES
    51   24   94 1    
    52   25   26 2    
    53   25   27 1    
    54   27   28 1    
    55   27   29 1    
    56   27   95 1    
    57   28   96 1    
    58   28   97 1    
    59   28   98 1    
    60   29   30 am   BACKBONE|DICT|INTERRES
    61   29   99 1    
    62   30   31 2    
    63   30   32 1    
    64   32   33 1    
    65   32   34 1    
    66   32  100 1    
    67   33  101 1    
    68   33  102 1    
    69   33  103 1    
    70   34   35 am   BACKBONE|DICT|INTERRES
    71   34  104 1    
    72   35   36 2    
    73   37   38 2    
    74   37   39 am   BACKBONE|DICT|INTERRES
    75   39   40 1    
    76   39  105 1    
    77   40   41 1    
    78   40   42 1    
    79   40  106 1    
    80   41  107 1    
    81   41  108 1    
    82   41  109 1    
    83   42   43 2    
    84   42   44 am   BACKBONE|DICT|INTERRES
    85   44   45 1    
    86   44  110 1    
    87   45   46 1    
    88   45   47 1    
    89   45  111 1    
    90   46  112 1    
    91   46  113 1    
    92   46  114 1    
    93   47   48 2    
    94   47   49 am   BACKBONE|DICT|INTERRES
    95   49   50 1    
    96   49  115 1    
    97   50   51 1    
    98   50   52 1    
    99   50  116 1    
   100   51  117 1    
   101   51  118 1    
   102   51  119 1    
   103   52   53 2    
   104   52   54 am   BACKBONE|DICT|INTERRES
   105   54   55 1    
   106   54  120 1    
   107   55   56 1    
   108   55   57 1    
   109   55  121 1    
   110   56  122 1    
   111   56  123 1    
   112   56  124 1    
   113   57   58 2    
   114   57   59 am   BACKBONE|DICT|INTERRES
   115   59   60 1    
   116   59  125 1    
   117   60   61 1    
   118   60   62 1    
   119   60  126 1    
   120   61  127 1    
   121   61  128 1    
   122   61  129 1    
   123   62   63 2    
   124   62   64 am   BACKBONE|DICT|INTERRES
   125   64   65 1    
   126   64  130 1    
   127   65   66 1    
   128   65   69 1    
   129   65  131 1    
   130   66   67 am   BACKBONE|DICT|INTERRES
   131   66   68 2    
   132   67  132 1    
   133   67  133 1    
   134   69   70 1    
   135   69  134 1    
   136   69  135 1    
   137   70   71 1    
   138   71  136 1    
   139   71  137 1    
@<TRIPOS>SUBSTRUCTURE
     1 UNK         1 GROUP             0       ****    0 ROOT    
