@<TRIPOS>MOLECULE
3R137
137   139    1
SMALL
USER_CHARGES


@<TRIPOS>ATOM
      1 CA         26.2042   -3.4466    2.6702 C.3       0 UNK        -0.2020 
      2 C          26.8560   -3.2055    1.3177 C.2       0 UNK         0.4855 
      3 O          27.7617   -2.3798    1.2133 O.2       0 UNK        -0.5197 
      4 N          26.4001   -3.9157    0.2768 N.am      1 UNK        -0.4892 
      5 CA         26.9151   -3.8075   -1.0957 C.3       1 UNK         0.0835 
      6 C6         26.7456   -5.1426   -1.8634 C.3       12 UNK        -0.0855 
      7 S7         27.8746   -5.3903   -3.2809 S.3       12 UNK        -0.2931 
      8 C8         29.5470   -5.2214   -2.5652 C.3       12 UNK         0.0378 
      9 C9         30.2241   -3.9280   -3.0099 C.ar      12 UNK        -0.0802 
     10 C10        30.7224   -3.8203   -4.3119 C.ar      12 UNK        -0.0944 
     11 C11        31.3588   -2.6516   -4.7418 C.ar      12 UNK        -0.0787 
     12 C12        31.4969   -1.5821   -3.8520 C.ar      12 UNK        -0.0862 
     13 C13        30.9887   -1.6651   -2.5530 C.ar      12 UNK        -0.0733 
     14 C14        30.3741   -2.8488   -2.1316 C.ar      12 UNK        -0.0832 
     15 C15        31.0993   -0.4798   -1.5987 C.3       12 UNK         0.0240 
     16 S16        30.4201    1.0728   -2.2850 S.3       12 UNK        -0.2522 
     17 C17        28.7366    0.5829   -2.7935 C.3       12 UNK        -0.0967 
     18 CA         28.5429    0.6935   -4.3323 C.3       5 UNK         0.0660 
     19 N          27.7567   -0.4160   -4.8759 N.am      5 UNK        -0.4015 
     20 C          27.5886   -0.6838   -6.1801 C.2       4 UNK         0.4946 
     21 O          27.9830    0.0397   -7.0954 O.2       4 UNK        -0.5353 
     22 CA         26.8531   -1.9833   -6.5264 C.3       4 UNK         0.0277 
     23 CB         27.7824   -3.1895   -6.3275 C.3       4 UNK        -0.1981 
     24 N          25.6585   -2.1373   -5.6986 N.am      4 UNK        -0.4209 
     25 C          24.4319   -1.7445   -6.0695 C.2       3 UNK         0.4942 
     26 O          24.1567   -1.3204   -7.1918 O.2       3 UNK        -0.5208 
     27 CA         23.3152   -1.8199   -5.0113 C.3       3 UNK         0.0250 
     28 CB         22.5680   -3.1591   -5.1153 C.3       3 UNK        -0.1990 
     29 N          23.7792   -1.6311   -3.6338 N.am      3 UNK        -0.4232 
     30 C          24.3938   -0.5336   -3.1703 C.2       2 UNK         0.4993 
     31 O          24.6449    0.4593   -3.8516 O.2       2 UNK        -0.5286 
     32 CA         24.8724   -0.5727   -1.7119 C.3       2 UNK         0.0209 
     33 CB         23.7546   -0.1092   -0.7652 C.3       2 UNK        -0.1931 
     34 N          25.3847   -1.8744   -1.2662 N.am      2 UNK        -0.4546 
     35 C          26.3606   -2.5819   -1.8580 C.2       1 UNK         0.5154 
     36 O          26.8375   -2.2790   -2.9530 O.2       1 UNK        -0.5181 
     37 C          28.0018    2.0798   -4.7349 C.2       5 UNK         0.5014 
     38 O          28.7824    2.9246   -5.1751 O.2       5 UNK        -0.5248 
     39 N          26.6837    2.2943   -4.5948 N.am      6 UNK        -0.4434 
     40 CA         26.0289    3.5645   -4.9293 C.3       6 UNK         0.0363 
     41 CB         24.6631    3.6504   -4.2299 C.3       6 UNK        -0.1936 
     42 C          25.8709    3.7653   -6.4444 C.2       6 UNK         0.5081 
     43 O          25.8699    4.9067   -6.9059 O.2       6 UNK        -0.5248 
     44 N          25.7542    2.6593   -7.1916 N.am      7 UNK        -0.4718 
     45 CA         25.7211    2.6512   -8.6554 C.3       7 UNK         0.0273 
     46 CB         25.1329    1.3145   -9.1350 C.3       7 UNK        -0.1935 
     47 C          27.1082    2.8739   -9.2835 C.2       7 UNK         0.5018 
     48 O          27.1770    3.2974  -10.4375 O.2       7 UNK        -0.5186 
     49 N          28.1697    2.5596   -8.5238 N.am      8 UNK        -0.4240 
     50 CA         29.5769    2.4883   -8.9257 C.3       8 UNK         0.0235 
     51 CB         30.1306    3.8823   -9.2870 C.3       8 UNK        -0.2000 
     52 C          29.7763    1.4414  -10.0351 C.2       8 UNK         0.4941 
     53 O          30.3540    1.7439  -11.0818 O.2       8 UNK        -0.5273 
     54 N          29.2640    0.2264   -9.7917 N.am      9 UNK        -0.4262 
     55 CA         29.2416   -0.9080  -10.7222 C.3       9 UNK         0.0264 
     56 CB         28.2246   -1.9418  -10.2058 C.3       9 UNK        -0.1955 
     57 C          30.6397   -1.5193  -10.9537 C.2       9 UNK         0.5031 
     58 O          30.8935   -2.6550  -10.5485 O.2       9 UNK        -0.5390 
     59 N          31.5263   -0.7278  -11.5752 N.am      10 UNK        -0.4204 
     60 CA         32.9585   -0.9700  -11.8053 C.3       10 UNK         0.0237 
     61 CB         33.1827   -2.1922  -12.7223 C.3       10 UNK        -0.1985 
     62 C          33.7796   -1.0400  -10.4993 C.2       10 UNK         0.4970 
     63 O          34.8568   -1.6386  -10.4824 O.2       10 UNK        -0.4914 
     64 N          33.2538   -0.4286   -9.4317 N.am      11 UNK        -0.4285 
     65 CA         33.8433   -0.3904   -8.0894 C.3       11 UNK         0.1007 
     66 C          35.0759    0.5499   -8.0061 C.2       11 UNK         0.5703 
     67 N          36.0172    0.2603   -7.1169 N.am      11 UNK        -0.7361 
     68 O          35.1696    1.5555   -8.7087 O.2       11 UNK        -0.4986 
     69 C69        32.7830   -0.0199   -7.0174 C.3       12 UNK        -0.0947 
     70 S70        31.3152   -1.1062   -7.0695 S.3       12 UNK        -0.2240 
     71 C71        31.9124   -2.5671   -6.1584 C.3       12 UNK         0.0194 
     72 H72        25.4334   -4.2147    2.6215 H         1 UNK         0.0906 
     73 H73        26.9526   -3.7643    3.3952 H         1 UNK         0.0906 
     74 H74        25.7456   -2.5280    3.0348 H         1 UNK         0.0906 
     75 H75        25.6543   -4.5828    0.4191 H         1 UNK         0.3140 
     76 H76        27.9791   -3.6192   -1.0032 H         1 UNK         0.1085 
     77 H77        26.9187   -5.9812   -1.1870 H         1 UNK         0.0836 
     78 H78        25.7181   -5.2569   -2.2132 H         1 UNK         0.0836 
     79 H79        30.1498   -6.0671   -2.8993 H         1 UNK         0.0731 
     80 H80        29.5115   -5.2973   -1.4776 H         1 UNK         0.0731 
     81 H81        30.6102   -4.6538   -4.9919 H         1 UNK         0.1312 
     82 H82        31.9817   -0.6718   -4.1734 H         1 UNK         0.1406 
     83 H83        30.0178   -2.9220   -1.1145 H         1 UNK         0.1631 
     84 H84        32.1493   -0.3244   -1.3484 H         1 UNK         0.0717 
     85 H85        30.5870   -0.6913   -0.6588 H         1 UNK         0.0717 
     86 H86        28.5682   -0.4384   -2.4551 H         1 UNK         0.0934 
     87 H87        28.0103    1.1826   -2.2416 H         1 UNK         0.0934 
     88 H88        29.5208    0.5928   -4.8095 H         1 UNK         0.0739 
     89 H89        27.4121   -1.0922   -4.1975 H         1 UNK         0.3093 
     90 H90        26.5750   -1.9432   -7.5814 H         1 UNK         0.0818 
     91 H91        28.0972   -3.2816   -5.2886 H         1 UNK         0.0819 
     92 H92        27.2945   -4.1211   -6.6136 H         1 UNK         0.0819 
     93 H93        28.6871   -3.0938   -6.9290 H         1 UNK         0.0819 
     94 H94        25.8076   -2.4380   -4.7416 H         1 UNK         0.3041 
     95 H95        22.6099   -1.0154   -5.2297 H         1 UNK         0.0784 
     96 H96        22.1881   -3.3159   -6.1259 H         1 UNK         0.0793 
     97 H97        23.2164   -4.0031   -4.8767 H         1 UNK         0.0793 
     98 H98        21.7115   -3.1904   -4.4416 H         1 UNK         0.0793 
     99 H99        23.6359   -2.3992   -2.9943 H         1 UNK         0.3024 
    100 H100       25.6978    0.1375   -1.6324 H         1 UNK         0.1171 
    101 H101       23.3693    0.8669   -1.0643 H         1 UNK         0.0786 
    102 H102       24.1160   -0.0112    0.2587 H         1 UNK         0.0786 
    103 H103       22.9141   -0.8041   -0.7602 H         1 UNK         0.0786 
    104 H104       25.0573   -2.2037   -0.3698 H         1 UNK         0.2977 
    105 H105       26.0740    1.5450   -4.2695 H         1 UNK         0.3127 
    106 H106       26.6503    4.3793   -4.5513 H         1 UNK         0.0770 
    107 H107       23.9655    2.9039   -4.6106 H         1 UNK         0.0814 
    108 H108       24.2073    4.6285   -4.3881 H         1 UNK         0.0814 
    109 H109       24.7563    3.5054   -3.1538 H         1 UNK         0.0814 
    110 H110       25.7607    1.7619   -6.7276 H         1 UNK         0.2983 
    111 H111       25.0688    3.4584   -8.9967 H         1 UNK         0.0947 
    112 H112       25.0641    1.2855  -10.2232 H         1 UNK         0.0806 
    113 H113       24.1279    1.1581   -8.7429 H         1 UNK         0.0806 
    114 H114       25.7477    0.4680   -8.8254 H         1 UNK         0.0806 
    115 H115       27.9724    2.1564   -7.6157 H         1 UNK         0.3000 
    116 H116       30.1265    2.1269   -8.0547 H         1 UNK         0.0850 
    117 H117       31.2024    3.8347   -9.4837 H         1 UNK         0.0810 
    118 H118       29.9808    4.5899   -8.4716 H         1 UNK         0.0810 
    119 H119       29.6557    4.2919  -10.1789 H         1 UNK         0.0810 
    120 H120       28.8322    0.0729   -8.8830 H         1 UNK         0.3040 
    121 H121       28.8831   -0.5463  -11.6880 H         1 UNK         0.0766 
    122 H122       27.2296   -1.5071  -10.1073 H         1 UNK         0.0812 
    123 H123       28.5172   -2.3363   -9.2328 H         1 UNK         0.0812 
    124 H124       28.1438   -2.7871  -10.8901 H         1 UNK         0.0812 
    125 H125       31.2045    0.2185  -11.7756 H         1 UNK         0.3205 
    126 H126       33.3260   -0.0913  -12.3376 H         1 UNK         0.0754 
    127 H127       34.2289   -2.2715  -13.0198 H         1 UNK         0.0769 
    128 H128       32.5931   -2.1163  -13.6361 H         1 UNK         0.0769 
    129 H129       32.9161   -3.1263  -12.2266 H         1 UNK         0.0769 
    130 H130       32.3712    0.0451   -9.5373 H         1 UNK         0.2981 
    131 H131       34.1966   -1.4009   -7.8729 H         1 UNK         0.0541 
    132 H132       36.8185    0.8674   -7.0376 H         1 UNK         0.3459 
    133 H133       35.9476   -0.5549   -6.5278 H         1 UNK         0.3459 
    134 H134       33.2195   -0.0590   -6.0183 H         1 UNK         0.0612 
    135 H135       32.4404    1.0072   -7.1591 H         1 UNK         0.0612 
    136 H136       33.0020   -2.5734   -6.1164 H         1 UNK         0.0624 
    137 H137       31.6260   -3.4505   -6.7313 H         1 UNK         0.0624 
@<TRIPOS>BOND
     1    1    2 1    
     2    1   72 1    
     3    1   73 1    
     4    1   74 1    
     5    2    3 2    
     6    2    4 am   BACKBONE|DICT|INTERRES
     7    4    5 1    
     8    4   75 1    
     9    5    6 1    
    10    5   35 1    
    11    5   76 1    
    12    6    7 1    
    13    6   77 1    
    14    6   78 1    
    15    7    8 1    
    16    8    9 1    
    17    8   79 1    
    18    8   80 1    
    19    9   10 ar   
    20    9   14 ar   
    21   10   11 ar   
    22   10   81 1    
    23   11   12 ar   
    24   11   71 1    
    25   12   13 ar   
    26   12   82 1    
    27   13   14 ar   
    28   13   15 1    
    29   14   83 1    
    30   15   16 1    
    31   15   84 1    
    32   15   85 1    
    33   16   17 1    
    34   17   18 1    
    35   17   86 1    
    36   17   87 1    
    37   18   19 1    
    38   18   37 1    
    39   18   88 1    
    40   19   20 am   BACKBONE|DICT|INTERRES
    41   19   89 1    
    42   20   21 2    
    43   20   22 1    
    44   22   23 1    
    45   22   24 1    
    46   22   90 1    
    47   23   91 1    
    48   23   92 1    
    49   23   93 1    
    50   24   25 am   BACKBONE|DICT|INTERRES
    51   24   94 1    
    52   25   26 2    
    53   25   27 1    
    54   27   28 1    
    55   27   29 1    
    56   27   95 1    
    57   28   96 1    
    58   28   97 1    
    59   28   98 1    
    60   29   30 am   BACKBONE|DICT|INTERRES
    61   29   99 1    
    62   30   31 2    
    63   30   32 1    
    64   32   33 1    
    65   32   34 1    
    66   32  100 1    
    67   33  101 1    
    68   33  102 1    
    69   33  103 1    
    70   34   35 am   BACKBONE|DICT|INTERRES
    71   34  104 1    
    72   35   36 2    
    73   37   38 2    
    74   37   39 am   BACKBONE|DICT|INTERRES
    75   39   40 1    
    76   39  105 1    
    77   40   41 1    
    78   40   42 1    
    79   40  106 1    
    80   41  107 1    
    81   41  108 1    
    82   41  109 1    
    83   42   43 2    
    84   42   44 am   BACKBONE|DICT|INTERRES
    85   44   45 1    
    86   44  110 1    
    87   45   46 1    
    88   45   47 1    
    89   45  111 1    
    90   46  112 1    
    91   46  113 1    
    92   46  114 1    
    93   47   48 2    
    94   47   49 am   BACKBONE|DICT|INTERRES
    95   49   50 1    
    96   49  115 1    
    97   50   51 1    
    98   50   52 1    
    99   50  116 1    
   100   51  117 1    
   101   51  118 1    
   102   51  119 1    
   103   52   53 2    
   104   52   54 am   BACKBONE|DICT|INTERRES
   105   54   55 1    
   106   54  120 1    
   107   55   56 1    
   108   55   57 1    
   109   55  121 1    
   110   56  122 1    
   111   56  123 1    
   112   56  124 1    
   113   57   58 2    
   114   57   59 am   BACKBONE|DICT|INTERRES
   115   59   60 1    
   116   59  125 1    
   117   60   61 1    
   118   60   62 1    
   119   60  126 1    
   120   61  127 1    
   121   61  128 1    
   122   61  129 1    
   123   62   63 2    
   124   62   64 am   BACKBONE|DICT|INTERRES
   125   64   65 1    
   126   64  130 1    
   127   65   66 1    
   128   65   69 1    
   129   65  131 1    
   130   66   67 am   BACKBONE|DICT|INTERRES
   131   66   68 2    
   132   67  132 1    
   133   67  133 1    
   134   69   70 1    
   135   69  134 1    
   136   69  135 1    
   137   70   71 1    
   138   71  136 1    
   139   71  137 1    
@<TRIPOS>SUBSTRUCTURE
     1 UNK         1 GROUP             0       ****    0 ROOT    
