@<TRIPOS>MOLECULE
3R137
137   139    1
SMALL
USER_CHARGES


@<TRIPOS>ATOM
      1 CA         26.3530   -4.1911   -3.1651 C.3       0 UNK        -0.2020 
      2 C          26.6057   -2.7939   -2.6237 C.2       0 UNK         0.4855 
      3 O          26.5206   -1.8202   -3.3755 O.2       0 UNK        -0.5197 
      4 N          26.8945   -2.7016   -1.3164 N.am      1 UNK        -0.4892 
      5 CA         27.2595   -1.4892   -0.5588 C.3       1 UNK         0.0835 
      6 C6         28.6942   -0.9926   -0.8922 C.3       12 UNK        -0.0855 
      7 S7         29.9592   -2.1385   -0.2428 S.3       12 UNK        -0.2931 
      8 C8         31.4004   -1.7322   -1.2890 C.3       12 UNK         0.0378 
      9 C9         31.6690   -2.7219   -2.4235 C.ar      12 UNK        -0.0802 
     10 C10        32.9797   -2.8782   -2.8860 C.ar      12 UNK        -0.0944 
     11 C11        33.2711   -3.7560   -3.9344 C.ar      12 UNK        -0.0787 
     12 C12        32.2384   -4.4863   -4.5289 C.ar      12 UNK        -0.0862 
     13 C13        30.9225   -4.3355   -4.0854 C.ar      12 UNK        -0.0733 
     14 C14        30.6455   -3.4586   -3.0315 C.ar      12 UNK        -0.0832 
     15 C15        29.7913   -5.1001   -4.7592 C.3       12 UNK         0.0240 
     16 S16        29.2462   -4.3073   -6.3085 S.3       12 UNK        -0.2522 
     17 C17        29.0735   -2.5695   -5.7911 C.3       12 UNK        -0.0967 
     18 CA         28.2818   -1.7127   -6.7990 C.3       5 UNK         0.0660 
     19 N          26.8876   -2.1431   -6.9480 N.am      5 UNK        -0.4015 
     20 C          26.0640   -1.6870   -7.9015 C.2       4 UNK         0.4946 
     21 O          26.3916   -0.8600   -8.7517 O.2       4 UNK        -0.5353 
     22 CA         24.6211   -2.2169   -7.9017 C.3       4 UNK         0.0277 
     23 CB         24.5563   -3.5932   -8.5838 C.3       4 UNK        -0.1981 
     24 N          23.9771   -2.2914   -6.5853 N.am      4 UNK        -0.4209 
     25 C          23.8771   -1.2948   -5.6934 C.2       3 UNK         0.4942 
     26 O          24.4387   -0.2058   -5.8165 O.2       3 UNK        -0.5208 
     27 CA         22.9776   -1.5334   -4.4715 C.3       3 UNK         0.0250 
     28 CB         22.6137   -3.0122   -4.2181 C.3       3 UNK        -0.1990 
     29 N          23.6118   -0.9620   -3.2858 N.am      3 UNK        -0.4232 
     30 C          22.9631   -0.3423   -2.2903 C.2       2 UNK         0.4993 
     31 O          21.7399   -0.1938   -2.2637 O.2       2 UNK        -0.5286 
     32 CA         23.8171    0.1704   -1.1177 C.3       2 UNK         0.0209 
     33 CB         23.0123    0.3490    0.1848 C.3       2 UNK        -0.1931 
     34 N          24.9390   -0.7370   -0.8811 N.am      2 UNK        -0.4546 
     35 C          26.1957   -0.3645   -0.6146 C.2       1 UNK         0.5154 
     36 O          26.5198    0.8063   -0.4080 O.2       1 UNK        -0.5181 
     37 C          28.3843   -0.2265   -6.4151 C.2       5 UNK         0.5014 
     38 O          29.1997    0.4880   -6.9964 O.2       5 UNK        -0.5248 
     39 N          27.5534    0.2173   -5.4619 N.am      6 UNK        -0.4434 
     40 CA         27.4651    1.6173   -5.0432 C.3       6 UNK         0.0363 
     41 CB         26.6381    1.7158   -3.7551 C.3       6 UNK        -0.1936 
     42 C          26.8871    2.5304   -6.1367 C.2       6 UNK         0.5081 
     43 O          27.3590    3.6569   -6.2905 O.2       6 UNK        -0.5248 
     44 N          25.8931    2.0273   -6.8816 N.am      7 UNK        -0.4718 
     45 CA         25.2712    2.7126   -8.0160 C.3       7 UNK         0.0273 
     46 CB         24.0059    1.9540   -8.4473 C.3       7 UNK        -0.1935 
     47 C          26.2344    2.8948   -9.2011 C.2       7 UNK         0.5018 
     48 O          26.2843    3.9848   -9.7727 O.2       7 UNK        -0.5186 
     49 N          26.9835    1.8366   -9.5432 N.am      8 UNK        -0.4240 
     50 CA         28.0043    1.8548  -10.5941 C.3       8 UNK         0.0235 
     51 CB         28.3845    0.4116  -10.9641 C.3       8 UNK        -0.2000 
     52 C          29.2613    2.6480  -10.1987 C.2       8 UNK         0.4941 
     53 O          29.8451    3.3045  -11.0627 O.2       8 UNK        -0.5273 
     54 N          29.6401    2.5573   -8.9141 N.am      9 UNK        -0.4262 
     55 CA         30.8770    3.0263   -8.2788 C.3       9 UNK         0.0264 
     56 CB         31.1360    4.5250   -8.5397 C.3       9 UNK        -0.1955 
     57 C          32.0880    2.1535   -8.6575 C.2       9 UNK         0.5031 
     58 O          32.0400    1.3990   -9.6324 O.2       9 UNK        -0.5390 
     59 N          33.1556    2.2545   -7.8501 N.am      10 UNK        -0.4204 
     60 CA         34.4463    1.5621   -8.0024 C.3       10 UNK         0.0237 
     61 CB         35.2519    2.1963   -9.1570 C.3       10 UNK        -0.1985 
     62 C          34.3165    0.0285   -8.1375 C.2       10 UNK         0.4970 
     63 O          34.9789   -0.5722   -8.9858 O.2       10 UNK        -0.4914 
     64 N          33.4424   -0.5606   -7.3093 N.am      11 UNK        -0.4285 
     65 CA         33.0641   -1.9862   -7.3063 C.3       11 UNK         0.1007 
     66 C          32.2040   -2.4308   -8.5306 C.2       11 UNK         0.5703 
     67 N          31.6895   -1.5295   -9.3601 N.am      11 UNK        -0.7361 
     68 O          31.9737   -3.6216   -8.7243 O.2       11 UNK        -0.4986 
     69 C69        34.2601   -2.9517   -7.0444 C.3       12 UNK        -0.0947 
     70 S70        35.1961   -2.5565   -5.5272 S.3       12 UNK        -0.2240 
     71 C71        34.7048   -3.9128   -4.4175 C.3       12 UNK         0.0194 
     72 H72        26.5332   -4.2279   -4.2389 H         1 UNK         0.0906 
     73 H73        27.0058   -4.9208   -2.6871 H         1 UNK         0.0906 
     74 H74        25.3228   -4.4889   -2.9783 H         1 UNK         0.0906 
     75 H75        26.9188   -3.5522   -0.7700 H         1 UNK         0.3140 
     76 H76        27.2577   -1.7867    0.4915 H         1 UNK         0.1085 
     77 H77        28.8157   -0.8645   -1.9695 H         1 UNK         0.0836 
     78 H78        28.8993   -0.0191   -0.4435 H         1 UNK         0.0836 
     79 H79        32.2726   -1.6910   -0.6345 H         1 UNK         0.0731 
     80 H80        31.2887   -0.7312   -1.7077 H         1 UNK         0.0731 
     81 H81        33.7809   -2.3096   -2.4333 H         1 UNK         0.1312 
     82 H82        32.4530   -5.1606   -5.3467 H         1 UNK         0.1406 
     83 H83        29.6251   -3.3406   -2.6970 H         1 UNK         0.1631 
     84 H84        28.9409   -5.1929   -4.0847 H         1 UNK         0.0717 
     85 H85        30.1142   -6.1188   -4.9785 H         1 UNK         0.0717 
     86 H86        30.0803   -2.1664   -5.6639 H         1 UNK         0.0934 
     87 H87        28.6043   -2.5327   -4.8089 H         1 UNK         0.0934 
     88 H88        28.7605   -1.8197   -7.7756 H         1 UNK         0.0739 
     89 H89        26.5407   -2.8134   -6.2794 H         1 UNK         0.3093 
     90 H90        24.0290   -1.5210   -8.4991 H         1 UNK         0.0818 
     91 H91        23.5259   -3.9220   -8.7200 H         1 UNK         0.0819 
     92 H92        25.0154   -3.5605   -9.5731 H         1 UNK         0.0819 
     93 H93        25.0800   -4.3568   -8.0073 H         1 UNK         0.0819 
     94 H94        23.4811   -3.1473   -6.3834 H         1 UNK         0.3041 
     95 H95        22.0544   -0.9885   -4.6799 H         1 UNK         0.0784 
     96 H96        22.0121   -3.4199   -5.0312 H         1 UNK         0.0793 
     97 H97        23.4993   -3.6368   -4.1103 H         1 UNK         0.0793 
     98 H98        22.0217   -3.1202   -3.3089 H         1 UNK         0.0793 
     99 H99        24.6269   -1.0027   -3.2738 H         1 UNK         0.3024 
    100 H100       24.1929    1.1488   -1.4268 H         1 UNK         0.1171 
    101 H101       23.6413    0.7315    0.9889 H         1 UNK         0.0786 
    102 H102       22.5758   -0.5928    0.5191 H         1 UNK         0.0786 
    103 H103       22.1964    1.0602    0.0495 H         1 UNK         0.0786 
    104 H104       24.7577   -1.7201   -1.0312 H         1 UNK         0.2977 
    105 H105       26.9201   -0.4359   -5.0136 H         1 UNK         0.3127 
    106 H106       28.4765    1.9661   -4.8233 H         1 UNK         0.0770 
    107 H107       25.6226    1.3435   -3.8926 H         1 UNK         0.0814 
    108 H108       26.5668    2.7482   -3.4109 H         1 UNK         0.0814 
    109 H109       27.1047    1.1398   -2.9584 H         1 UNK         0.0814 
    110 H110       25.5176    1.1147   -6.6312 H         1 UNK         0.2983 
    111 H111       24.9717    3.7073   -7.6786 H         1 UNK         0.0947 
    112 H112       23.5028    2.4685   -9.2670 H         1 UNK         0.0806 
    113 H113       23.2928    1.8740   -7.6264 H         1 UNK         0.0806 
    114 H114       24.2367    0.9445   -8.7877 H         1 UNK         0.0806 
    115 H115       26.8326    0.9493   -9.0669 H         1 UNK         0.3000 
    116 H116       27.5742    2.3307  -11.4781 H         1 UNK         0.0850 
    117 H117       29.1319    0.3956  -11.7585 H         1 UNK         0.0810 
    118 H118       27.5192   -0.1489  -11.3181 H         1 UNK         0.0810 
    119 H119       28.8039   -0.1239  -10.1108 H         1 UNK         0.0810 
    120 H120       29.1144    1.9153   -8.3276 H         1 UNK         0.3040 
    121 H121       30.7107    2.8970   -7.2081 H         1 UNK         0.0766 
    122 H122       31.9353    4.9019   -7.9013 H         1 UNK         0.0812 
    123 H123       30.2481    5.1222   -8.3314 H         1 UNK         0.0812 
    124 H124       31.4354    4.7150   -9.5707 H         1 UNK         0.0812 
    125 H125       33.0917    2.8802   -7.0584 H         1 UNK         0.3205 
    126 H126       35.0024    1.7357   -7.0798 H         1 UNK         0.0754 
    127 H127       36.2545    1.7709   -9.2176 H         1 UNK         0.0769 
    128 H128       35.3662    3.2713   -9.0175 H         1 UNK         0.0769 
    129 H129       34.7689    2.0334  -10.1213 H         1 UNK         0.0769 
    130 H130       32.9333    0.0224   -6.6621 H         1 UNK         0.2981 
    131 H131       32.3889   -2.0903   -6.4570 H         1 UNK         0.0541 
    132 H132       31.8868   -0.5385   -9.2634 H         1 UNK         0.3459 
    133 H133       31.1373   -1.8503  -10.1379 H         1 UNK         0.3459 
    134 H134       34.9568   -2.9375   -7.8832 H         1 UNK         0.0612 
    135 H135       33.9099   -3.9825   -6.9779 H         1 UNK         0.0612 
    136 H136       34.8448   -4.8704   -4.9213 H         1 UNK         0.0624 
    137 H137       35.3772   -3.9215   -3.5585 H         1 UNK         0.0624 
@<TRIPOS>BOND
     1    1    2 1    
     2    1   72 1    
     3    1   73 1    
     4    1   74 1    
     5    2    3 2    
     6    2    4 am   BACKBONE|DICT|INTERRES
     7    4    5 1    
     8    4   75 1    
     9    5    6 1    
    10    5   35 1    
    11    5   76 1    
    12    6    7 1    
    13    6   77 1    
    14    6   78 1    
    15    7    8 1    
    16    8    9 1    
    17    8   79 1    
    18    8   80 1    
    19    9   10 ar   
    20    9   14 ar   
    21   10   11 ar   
    22   10   81 1    
    23   11   12 ar   
    24   11   71 1    
    25   12   13 ar   
    26   12   82 1    
    27   13   14 ar   
    28   13   15 1    
    29   14   83 1    
    30   15   16 1    
    31   15   84 1    
    32   15   85 1    
    33   16   17 1    
    34   17   18 1    
    35   17   86 1    
    36   17   87 1    
    37   18   19 1    
    38   18   37 1    
    39   18   88 1    
    40   19   20 am   BACKBONE|DICT|INTERRES
    41   19   89 1    
    42   20   21 2    
    43   20   22 1    
    44   22   23 1    
    45   22   24 1    
    46   22   90 1    
    47   23   91 1    
    48   23   92 1    
    49   23   93 1    
    50   24   25 am   BACKBONE|DICT|INTERRES
    51   24   94 1    
    52   25   26 2    
    53   25   27 1    
    54   27   28 1    
    55   27   29 1    
    56   27   95 1    
    57   28   96 1    
    58   28   97 1    
    59   28   98 1    
    60   29   30 am   BACKBONE|DICT|INTERRES
    61   29   99 1    
    62   30   31 2    
    63   30   32 1    
    64   32   33 1    
    65   32   34 1    
    66   32  100 1    
    67   33  101 1    
    68   33  102 1    
    69   33  103 1    
    70   34   35 am   BACKBONE|DICT|INTERRES
    71   34  104 1    
    72   35   36 2    
    73   37   38 2    
    74   37   39 am   BACKBONE|DICT|INTERRES
    75   39   40 1    
    76   39  105 1    
    77   40   41 1    
    78   40   42 1    
    79   40  106 1    
    80   41  107 1    
    81   41  108 1    
    82   41  109 1    
    83   42   43 2    
    84   42   44 am   BACKBONE|DICT|INTERRES
    85   44   45 1    
    86   44  110 1    
    87   45   46 1    
    88   45   47 1    
    89   45  111 1    
    90   46  112 1    
    91   46  113 1    
    92   46  114 1    
    93   47   48 2    
    94   47   49 am   BACKBONE|DICT|INTERRES
    95   49   50 1    
    96   49  115 1    
    97   50   51 1    
    98   50   52 1    
    99   50  116 1    
   100   51  117 1    
   101   51  118 1    
   102   51  119 1    
   103   52   53 2    
   104   52   54 am   BACKBONE|DICT|INTERRES
   105   54   55 1    
   106   54  120 1    
   107   55   56 1    
   108   55   57 1    
   109   55  121 1    
   110   56  122 1    
   111   56  123 1    
   112   56  124 1    
   113   57   58 2    
   114   57   59 am   BACKBONE|DICT|INTERRES
   115   59   60 1    
   116   59  125 1    
   117   60   61 1    
   118   60   62 1    
   119   60  126 1    
   120   61  127 1    
   121   61  128 1    
   122   61  129 1    
   123   62   63 2    
   124   62   64 am   BACKBONE|DICT|INTERRES
   125   64   65 1    
   126   64  130 1    
   127   65   66 1    
   128   65   69 1    
   129   65  131 1    
   130   66   67 am   BACKBONE|DICT|INTERRES
   131   66   68 2    
   132   67  132 1    
   133   67  133 1    
   134   69   70 1    
   135   69  134 1    
   136   69  135 1    
   137   70   71 1    
   138   71  136 1    
   139   71  137 1    
@<TRIPOS>SUBSTRUCTURE
     1 UNK         1 GROUP             0       ****    0 ROOT    
