@<TRIPOS>MOLECULE
3R137
137   139    1
SMALL
USER_CHARGES


@<TRIPOS>ATOM
      1 CA         25.7247   -6.6332    0.7663 C.3       0 UNK        -0.2020 
      2 C          25.5656   -5.2488    0.1551 C.2       0 UNK         0.4855 
      3 O          24.4451   -4.7466    0.0606 O.2       0 UNK        -0.5197 
      4 N          26.6781   -4.6282   -0.2621 N.am      1 UNK        -0.4892 
      5 CA         26.7098   -3.2966   -0.8876 C.3       1 UNK         0.0835 
      6 C6         28.1255   -2.6616   -0.7838 C.3       12 UNK        -0.0855 
      7 S7         28.0759   -0.8804   -0.3739 S.3       12 UNK        -0.2931 
      8 C8         29.8178   -0.5276    0.0436 C.3       12 UNK         0.0378 
      9 C9         30.6725   -0.2145   -1.1813 C.ar      12 UNK        -0.0802 
     10 C10        31.1239   -1.2502   -2.0040 C.ar      12 UNK        -0.0944 
     11 C11        31.9340   -0.9866   -3.1112 C.ar      12 UNK        -0.0787 
     12 C12        32.3320    0.3299   -3.3658 C.ar      12 UNK        -0.0862 
     13 C13        31.8941    1.3817   -2.5544 C.ar      12 UNK        -0.0733 
     14 C14        31.0536    1.1031   -1.4691 C.ar      12 UNK        -0.0832 
     15 C15        32.4072    2.7991   -2.7957 C.3       12 UNK         0.0240 
     16 S16        32.2541    3.3515   -4.5312 S.3       12 UNK        -0.2522 
     17 C17        30.6077    4.1357   -4.5607 C.3       12 UNK        -0.0967 
     18 CA         29.6340    3.4569   -5.5547 C.3       5 UNK         0.0660 
     19 N          29.4426    2.0374   -5.2269 N.am      5 UNK        -0.4015 
     20 C          28.5995    1.1709   -5.8044 C.2       4 UNK         0.4946 
     21 O          27.8251    1.4619   -6.7167 O.2       4 UNK        -0.5353 
     22 CA         28.6016   -0.2428   -5.2129 C.3       4 UNK         0.0277 
     23 CB         28.1836   -0.1959   -3.7400 C.3       4 UNK        -0.1981 
     24 N          27.6976   -1.1712   -5.8859 N.am      4 UNK        -0.4209 
     25 C          27.8435   -1.6928   -7.1086 C.2       3 UNK         0.4942 
     26 O          28.7402   -1.3733   -7.8931 O.2       3 UNK        -0.5208 
     27 CA         26.8130   -2.7658   -7.5243 C.3       3 UNK         0.0250 
     28 CB         27.4242   -3.8251   -8.4653 C.3       3 UNK        -0.1990 
     29 N          26.1194   -3.4178   -6.3983 N.am      3 UNK        -0.4232 
     30 C          26.6723   -4.1177   -5.3933 C.2       2 UNK         0.4993 
     31 O          27.8817   -4.3226   -5.2683 O.2       2 UNK        -0.5286 
     32 CA         25.7007   -4.7006   -4.3546 C.3       2 UNK         0.0209 
     33 CB         25.4974   -6.2064   -4.5919 C.3       2 UNK        -0.1931 
     34 N          26.1843   -4.4904   -2.9882 N.am      2 UNK        -0.4546 
     35 C          26.1783   -3.3131   -2.3441 C.2       1 UNK         0.5154 
     36 O          25.7487   -2.2753   -2.8504 O.2       1 UNK        -0.5181 
     37 C          28.3287    4.2797   -5.6352 C.2       5 UNK         0.5014 
     38 O          28.2420    5.1949   -6.4546 O.2       5 UNK        -0.5248 
     39 N          27.3450    3.9450   -4.7884 N.am      6 UNK        -0.4434 
     40 CA         26.0198    4.5696   -4.7549 C.3       6 UNK         0.0363 
     41 CB         25.3937    4.3161   -3.3727 C.3       6 UNK        -0.1936 
     42 C          25.0729    4.0812   -5.8704 C.2       6 UNK         0.5081 
     43 O          24.0109    4.6791   -6.0500 O.2       6 UNK        -0.5248 
     44 N          25.4440    3.0049   -6.5735 N.am      7 UNK        -0.4718 
     45 CA         24.6740    2.3664   -7.6339 C.3       7 UNK         0.0273 
     46 CB         24.2490    0.9605   -7.1561 C.3       7 UNK        -0.1935 
     47 C          25.5165    2.3715   -8.9204 C.2       7 UNK         0.5018 
     48 O          25.7527    3.4440   -9.4786 O.2       7 UNK        -0.5186 
     49 N          25.9326    1.1855   -9.3837 N.am      8 UNK        -0.4240 
     50 CA         26.6617    0.9771  -10.6364 C.3       8 UNK         0.0235 
     51 CB         26.5834   -0.5124  -11.0138 C.3       8 UNK        -0.2000 
     52 C          28.1317    1.4307  -10.6076 C.2       8 UNK         0.4941 
     53 O          28.6862    1.6804  -11.6788 O.2       8 UNK        -0.5273 
     54 N          28.7434    1.4892   -9.4133 N.am      9 UNK        -0.4262 
     55 CA         30.1721    1.7320   -9.1638 C.3       9 UNK         0.0264 
     56 CB         30.5485    3.1896   -9.5036 C.3       9 UNK        -0.1955 
     57 C          31.0809    0.6906   -9.8492 C.2       9 UNK         0.5031 
     58 O          32.1350    1.0454  -10.3818 O.2       9 UNK        -0.5390 
     59 N          30.6379   -0.5726   -9.8349 N.am      10 UNK        -0.4204 
     60 CA         31.2864   -1.7059  -10.4964 C.3       10 UNK         0.0237 
     61 CB         30.3091   -2.3173  -11.5144 C.3       10 UNK        -0.1985 
     62 C          31.7529   -2.7690   -9.4923 C.2       10 UNK         0.4970 
     63 O          32.7739   -3.4100   -9.7428 O.2       10 UNK        -0.4914 
     64 N          31.0127   -2.9369   -8.3867 N.am      11 UNK        -0.4285 
     65 CA         31.3026   -3.8536   -7.2688 C.3       11 UNK         0.1007 
     66 C          31.2813   -5.3716   -7.6292 C.2       11 UNK         0.5703 
     67 N          30.7129   -5.7768   -8.7591 N.am      11 UNK        -0.7361 
     68 O          31.7565   -6.2042   -6.8603 O.2       11 UNK        -0.4986 
     69 C69        32.5736   -3.4303   -6.4777 C.3       12 UNK        -0.0947 
     70 S70        32.3919   -1.7595   -5.7676 S.3       12 UNK        -0.2240 
     71 C71        32.4034   -2.1442   -3.9861 C.3       12 UNK         0.0194 
     72 H72        26.7680   -6.9478    0.8026 H         1 UNK         0.0906 
     73 H73        25.3334   -6.6407    1.7839 H         1 UNK         0.0906 
     74 H74        25.1692   -7.3669    0.1823 H         1 UNK         0.0906 
     75 H75        27.5717   -5.0885   -0.1529 H         1 UNK         0.3140 
     76 H76        26.0126   -2.6733   -0.3219 H         1 UNK         0.1085 
     77 H77        28.6993   -3.1453    0.0086 H         1 UNK         0.0836 
     78 H78        28.6986   -2.8228   -1.6971 H         1 UNK         0.0836 
     79 H79        30.2475   -1.3677    0.5912 H         1 UNK         0.0731 
     80 H80        29.8374    0.3168    0.7341 H         1 UNK         0.0731 
     81 H81        30.8545   -2.2706   -1.7745 H         1 UNK         0.1312 
     82 H82        32.9984    0.5373   -4.1919 H         1 UNK         0.1406 
     83 H83        30.7247    1.9071   -0.8243 H         1 UNK         0.1631 
     84 H84        33.4646    2.8199   -2.5288 H         1 UNK         0.0717 
     85 H85        31.9196    3.5161   -2.1336 H         1 UNK         0.0717 
     86 H86        30.1830    4.1455   -3.5549 H         1 UNK         0.0934 
     87 H87        30.7583    5.1832   -4.8314 H         1 UNK         0.0934 
     88 H88        30.0851    3.4890   -6.5473 H         1 UNK         0.0739 
     89 H89        30.0521    1.6898   -4.4998 H         1 UNK         0.3093 
     90 H90        29.6164   -0.6380   -5.2874 H         1 UNK         0.0818 
     91 H91        27.1514    0.1350   -3.6169 H         1 UNK         0.0819 
     92 H92        28.2719   -1.1845   -3.2955 H         1 UNK         0.0819 
     93 H93        28.8102    0.4722   -3.1516 H         1 UNK         0.0819 
     94 H94        26.9167   -1.4946   -5.3341 H         1 UNK         0.3041 
     95 H95        26.0445   -2.2333   -8.0859 H         1 UNK         0.0784 
     96 H96        27.8325   -3.3684   -9.3664 H         1 UNK         0.0793 
     97 H97        28.2312   -4.3754   -7.9820 H         1 UNK         0.0793 
     98 H98        26.6746   -4.5482   -8.7861 H         1 UNK         0.0793 
     99 H99        25.1134   -3.3138   -6.4014 H         1 UNK         0.3024 
    100 H100       24.7325   -4.2029   -4.4505 H         1 UNK         0.1171 
    101 H101       25.1112   -6.3953   -5.5947 H         1 UNK         0.0786 
    102 H102       26.4323   -6.7605   -4.4937 H         1 UNK         0.0786 
    103 H103       24.7812   -6.6270   -3.8856 H         1 UNK         0.0786 
    104 H104       26.5749   -5.2908   -2.5135 H         1 UNK         0.2977 
    105 H105       27.4997    3.1797   -4.1489 H         1 UNK         0.3127 
    106 H106       26.1396    5.6478   -4.8818 H         1 UNK         0.0770 
    107 H107       25.2420    3.2520   -3.1870 H         1 UNK         0.0814 
    108 H108       24.4206    4.8023   -3.2892 H         1 UNK         0.0814 
    109 H109       26.0198    4.7127   -2.5733 H         1 UNK         0.0814 
    110 H110       26.3678    2.6064   -6.4222 H         1 UNK         0.2983 
    111 H111       23.7702    2.9384   -7.8541 H         1 UNK         0.0947 
    112 H112       23.6849    0.4311   -7.9254 H         1 UNK         0.0806 
    113 H113       23.6005    1.0306   -6.2825 H         1 UNK         0.0806 
    114 H114       25.1046    0.3451   -6.8747 H         1 UNK         0.0806 
    115 H115       25.7063    0.3629   -8.8466 H         1 UNK         0.3000 
    116 H116       26.1604    1.5537  -11.4169 H         1 UNK         0.0850 
    117 H117       27.0732   -0.6983  -11.9708 H         1 UNK         0.0810 
    118 H118       25.5504   -0.8470  -11.1108 H         1 UNK         0.0810 
    119 H119       27.0757   -1.1421  -10.2727 H         1 UNK         0.0810 
    120 H120       28.1939    1.2956   -8.5784 H         1 UNK         0.3040 
    121 H121       30.3275    1.5937   -8.0946 H         1 UNK         0.0766 
    122 H122       29.8832    3.8970   -9.0081 H         1 UNK         0.0812 
    123 H123       30.4994    3.3800  -10.5760 H         1 UNK         0.0812 
    124 H124       31.5647    3.4161   -9.1789 H         1 UNK         0.0812 
    125 H125       29.7969   -0.7714   -9.2965 H         1 UNK         0.3205 
    126 H126       32.1713   -1.3699  -11.0408 H         1 UNK         0.0754 
    127 H127       30.7601   -3.1663  -12.0301 H         1 UNK         0.0769 
    128 H128       30.0282   -1.5881  -12.2748 H         1 UNK         0.0769 
    129 H129       29.3938   -2.6696  -11.0391 H         1 UNK         0.0769 
    130 H130       30.1860   -2.3603   -8.2546 H         1 UNK         0.2981 
    131 H131       30.4562   -3.7410   -6.5899 H         1 UNK         0.0541 
    132 H132       30.6960   -6.7605   -8.9763 H         1 UNK         0.3459 
    133 H133       30.3235   -5.1092   -9.4036 H         1 UNK         0.3459 
    134 H134       33.4546   -3.4426   -7.1205 H         1 UNK         0.0612 
    135 H135       32.7843   -4.1344   -5.6714 H         1 UNK         0.0612 
    136 H136       31.7647   -3.0135   -3.8196 H         1 UNK         0.0624 
    137 H137       33.4126   -2.4310   -3.6884 H         1 UNK         0.0624 
@<TRIPOS>BOND
     1    1    2 1    
     2    1   72 1    
     3    1   73 1    
     4    1   74 1    
     5    2    3 2    
     6    2    4 am   BACKBONE|DICT|INTERRES
     7    4    5 1    
     8    4   75 1    
     9    5    6 1    
    10    5   35 1    
    11    5   76 1    
    12    6    7 1    
    13    6   77 1    
    14    6   78 1    
    15    7    8 1    
    16    8    9 1    
    17    8   79 1    
    18    8   80 1    
    19    9   10 ar   
    20    9   14 ar   
    21   10   11 ar   
    22   10   81 1    
    23   11   12 ar   
    24   11   71 1    
    25   12   13 ar   
    26   12   82 1    
    27   13   14 ar   
    28   13   15 1    
    29   14   83 1    
    30   15   16 1    
    31   15   84 1    
    32   15   85 1    
    33   16   17 1    
    34   17   18 1    
    35   17   86 1    
    36   17   87 1    
    37   18   19 1    
    38   18   37 1    
    39   18   88 1    
    40   19   20 am   BACKBONE|DICT|INTERRES
    41   19   89 1    
    42   20   21 2    
    43   20   22 1    
    44   22   23 1    
    45   22   24 1    
    46   22   90 1    
    47   23   91 1    
    48   23   92 1    
    49   23   93 1    
    50   24   25 am   BACKBONE|DICT|INTERRES
    51   24   94 1    
    52   25   26 2    
    53   25   27 1    
    54   27   28 1    
    55   27   29 1    
    56   27   95 1    
    57   28   96 1    
    58   28   97 1    
    59   28   98 1    
    60   29   30 am   BACKBONE|DICT|INTERRES
    61   29   99 1    
    62   30   31 2    
    63   30   32 1    
    64   32   33 1    
    65   32   34 1    
    66   32  100 1    
    67   33  101 1    
    68   33  102 1    
    69   33  103 1    
    70   34   35 am   BACKBONE|DICT|INTERRES
    71   34  104 1    
    72   35   36 2    
    73   37   38 2    
    74   37   39 am   BACKBONE|DICT|INTERRES
    75   39   40 1    
    76   39  105 1    
    77   40   41 1    
    78   40   42 1    
    79   40  106 1    
    80   41  107 1    
    81   41  108 1    
    82   41  109 1    
    83   42   43 2    
    84   42   44 am   BACKBONE|DICT|INTERRES
    85   44   45 1    
    86   44  110 1    
    87   45   46 1    
    88   45   47 1    
    89   45  111 1    
    90   46  112 1    
    91   46  113 1    
    92   46  114 1    
    93   47   48 2    
    94   47   49 am   BACKBONE|DICT|INTERRES
    95   49   50 1    
    96   49  115 1    
    97   50   51 1    
    98   50   52 1    
    99   50  116 1    
   100   51  117 1    
   101   51  118 1    
   102   51  119 1    
   103   52   53 2    
   104   52   54 am   BACKBONE|DICT|INTERRES
   105   54   55 1    
   106   54  120 1    
   107   55   56 1    
   108   55   57 1    
   109   55  121 1    
   110   56  122 1    
   111   56  123 1    
   112   56  124 1    
   113   57   58 2    
   114   57   59 am   BACKBONE|DICT|INTERRES
   115   59   60 1    
   116   59  125 1    
   117   60   61 1    
   118   60   62 1    
   119   60  126 1    
   120   61  127 1    
   121   61  128 1    
   122   61  129 1    
   123   62   63 2    
   124   62   64 am   BACKBONE|DICT|INTERRES
   125   64   65 1    
   126   64  130 1    
   127   65   66 1    
   128   65   69 1    
   129   65  131 1    
   130   66   67 am   BACKBONE|DICT|INTERRES
   131   66   68 2    
   132   67  132 1    
   133   67  133 1    
   134   69   70 1    
   135   69  134 1    
   136   69  135 1    
   137   70   71 1    
   138   71  136 1    
   139   71  137 1    
@<TRIPOS>SUBSTRUCTURE
     1 UNK         1 GROUP             0       ****    0 ROOT    
