@<TRIPOS>MOLECULE
3R137
137   139    1
SMALL
USER_CHARGES


@<TRIPOS>ATOM
      1 CA         26.3751   -5.4521    2.4483 C.3       0 UNK        -0.2020 
      2 C          26.4723   -3.9897    2.0404 C.2       0 UNK         0.4855 
      3 O          25.9411   -3.1245    2.7369 O.2       0 UNK        -0.5197 
      4 N          27.1507   -3.7076    0.9196 N.am      1 UNK        -0.4892 
      5 CA         27.3202   -2.3603    0.3569 C.3       1 UNK         0.0835 
      6 C6         28.4203   -2.3470   -0.7331 C.3       12 UNK        -0.0855 
      7 S7         29.2389   -0.7264   -0.9052 S.3       12 UNK        -0.2931 
      8 C8         30.8684   -1.2181   -1.5559 C.3       12 UNK         0.0378 
      9 C9         30.7962   -1.6223   -3.0224 C.ar      12 UNK        -0.0802 
     10 C10        31.1470   -0.7099   -4.0208 C.ar      12 UNK        -0.0944 
     11 C11        31.1066   -1.0791   -5.3694 C.ar      12 UNK        -0.0787 
     12 C12        30.6929   -2.3686   -5.7160 C.ar      12 UNK        -0.0862 
     13 C13        30.3096   -3.2820   -4.7287 C.ar      12 UNK        -0.0733 
     14 C14        30.3885   -2.9095   -3.3842 C.ar      12 UNK        -0.0832 
     15 C15        29.8199   -4.6767   -5.0998 C.3       12 UNK         0.0240 
     16 S16        28.4677   -4.6735   -6.3248 S.3       12 UNK        -0.2522 
     17 C17        27.1386   -3.7312   -5.4957 C.3       12 UNK        -0.0967 
     18 CA         26.5673   -2.6280   -6.4278 C.3       5 UNK         0.0660 
     19 N          25.1366   -2.3999   -6.2206 N.am      5 UNK        -0.4015 
     20 C          24.2565   -2.1956   -7.2127 C.2       4 UNK         0.4946 
     21 O          24.5352   -2.2824   -8.4095 O.2       4 UNK        -0.5353 
     22 CA         22.8141   -1.8227   -6.8213 C.3       4 UNK         0.0277 
     23 CB         21.9292   -3.0791   -6.7754 C.3       4 UNK        -0.1981 
     24 N          22.7035   -1.1091   -5.5476 N.am      4 UNK        -0.4209 
     25 C          23.2614    0.0794   -5.2772 C.2       3 UNK         0.4942 
     26 O          23.9244    0.7292   -6.0833 O.2       3 UNK        -0.5208 
     27 CA         23.1029    0.6027   -3.8412 C.3       3 UNK         0.0250 
     28 CB         21.8054    1.4158   -3.7085 C.3       3 UNK        -0.1990 
     29 N          23.1358   -0.4420   -2.8103 N.am      3 UNK        -0.4232 
     30 C          24.1061   -1.3529   -2.6437 C.2       2 UNK         0.4993 
     31 O          25.0739   -1.4874   -3.4009 O.2       2 UNK        -0.5286 
     32 CA         23.9249   -2.3207   -1.4647 C.3       2 UNK         0.0209 
     33 CB         23.2445   -3.6140   -1.9422 C.3       2 UNK        -0.1931 
     34 N          25.2010   -2.6581   -0.8353 N.am      2 UNK        -0.4546 
     35 C          25.9915   -1.7915   -0.1844 C.2       1 UNK         0.5154 
     36 O          25.6971   -0.6121    0.0188 O.2       1 UNK        -0.5181 
     37 C          27.3290   -1.2974   -6.3047 C.2       5 UNK         0.5014 
     38 O          28.1338   -0.9846   -7.1811 O.2       5 UNK        -0.5248 
     39 N          27.0409   -0.5152   -5.2517 N.am      6 UNK        -0.4434 
     40 CA         27.7247    0.7448   -4.9359 C.3       6 UNK         0.0363 
     41 CB         27.1762    1.3150   -3.6202 C.3       6 UNK        -0.1936 
     42 C          27.6692    1.8035   -6.0532 C.2       6 UNK         0.5081 
     43 O          28.6413    2.5362   -6.2385 O.2       6 UNK        -0.5248 
     44 N          26.5582    1.8490   -6.8011 N.am      7 UNK        -0.4718 
     45 CA         26.3635    2.7460   -7.9433 C.3       7 UNK         0.0273 
     46 CB         24.8622    2.8304   -8.2654 C.3       7 UNK        -0.1935 
     47 C          27.1613    2.3608   -9.2051 C.2       7 UNK         0.5018 
     48 O          27.1822    3.1570  -10.1451 O.2       7 UNK        -0.5186 
     49 N          27.7858    1.1711   -9.2391 N.am      8 UNK        -0.4240 
     50 CA         28.5361    0.6767  -10.4002 C.3       8 UNK         0.0235 
     51 CB         28.8333   -0.8226  -10.2365 C.3       8 UNK        -0.2000 
     52 C          29.8397    1.4443  -10.6764 C.2       8 UNK         0.4941 
     53 O          30.3000    1.4317  -11.8181 O.2       8 UNK        -0.5273 
     54 N          30.4284    2.0658   -9.6412 N.am      9 UNK        -0.4262 
     55 CA         31.6336    2.9172   -9.6337 C.3       9 UNK         0.0264 
     56 CB         31.4032    4.1924  -10.4671 C.3       9 UNK        -0.1955 
     57 C          32.9604    2.2387  -10.0391 C.2       9 UNK         0.5031 
     58 O          34.0174    2.6813   -9.5861 O.2       9 UNK        -0.5390 
     59 N          32.8990    1.1706  -10.8453 N.am      10 UNK        -0.4204 
     60 CA         34.0191    0.3633  -11.3478 C.3       10 UNK         0.0237 
     61 CB         33.4632   -0.7153  -12.2923 C.3       10 UNK        -0.1985 
     62 C          34.9047   -0.2791  -10.2617 C.2       10 UNK         0.4970 
     63 O          36.0273   -0.6850  -10.5651 O.2       10 UNK        -0.4914 
     64 N          34.3992   -0.3417   -9.0248 N.am      11 UNK        -0.4285 
     65 CA         35.1503   -0.6714   -7.8078 C.3       11 UNK         0.1007 
     66 C          36.2978    0.3248   -7.4561 C.2       11 UNK         0.5703 
     67 N          36.2929    1.5537   -7.9630 N.am      11 UNK        -0.7361 
     68 O          37.2128   -0.0324   -6.7178 O.2       11 UNK        -0.4986 
     69 C69        34.1902   -0.8808   -6.6072 C.3       12 UNK        -0.0947 
     70 S70        33.1549    0.5849   -6.2460 S.3       12 UNK        -0.2240 
     71 C71        31.4716   -0.0746   -6.4543 C.3       12 UNK         0.0194 
     72 H72        26.8948   -6.1075    1.7497 H         1 UNK         0.0906 
     73 H73        26.8122   -5.5957    3.4362 H         1 UNK         0.0906 
     74 H74        25.3310   -5.7611    2.4899 H         1 UNK         0.0906 
     75 H75        27.5740   -4.4629    0.3987 H         1 UNK         0.3140 
     76 H76        27.6378   -1.7132    1.1783 H         1 UNK         0.1085 
     77 H77        29.1931   -3.0713   -0.4715 H         1 UNK         0.0836 
     78 H78        28.0298   -2.6596   -1.7041 H         1 UNK         0.0836 
     79 H79        31.5564   -0.3799   -1.4346 H         1 UNK         0.0731 
     80 H80        31.2818   -2.0322   -0.9587 H         1 UNK         0.0731 
     81 H81        31.4557    0.2908   -3.7508 H         1 UNK         0.1312 
     82 H82        30.6368   -2.6537   -6.7576 H         1 UNK         0.1406 
     83 H83        30.1230   -3.6223   -2.6167 H         1 UNK         0.1631 
     84 H84        29.4820   -5.2199   -4.2159 H         1 UNK         0.0717 
     85 H85        30.6581   -5.2438   -5.5066 H         1 UNK         0.0717 
     86 H86        26.3584   -4.4520   -5.2456 H         1 UNK         0.0934 
     87 H87        27.4787   -3.3263   -4.5403 H         1 UNK         0.0934 
     88 H88        26.7066   -2.9657   -7.4574 H         1 UNK         0.0739 
     89 H89        24.8409   -2.2537   -5.2615 H         1 UNK         0.3093 
     90 H90        22.4297   -1.1604   -7.6001 H         1 UNK         0.0818 
     91 H91        20.8844   -2.8239   -6.5974 H         1 UNK         0.0819 
     92 H92        21.9707   -3.6201   -7.7220 H         1 UNK         0.0819 
     93 H93        22.2463   -3.7690   -5.9922 H         1 UNK         0.0819 
     94 H94        22.1799   -1.5647   -4.8147 H         1 UNK         0.3041 
     95 H95        23.9382    1.2746   -3.6454 H         1 UNK         0.0784 
     96 H96        21.7662    2.2117   -4.4539 H         1 UNK         0.0793 
     97 H97        20.9205    0.7938   -3.8493 H         1 UNK         0.0793 
     98 H98        21.7314    1.8898   -2.7296 H         1 UNK         0.0793 
     99 H99        22.3730   -0.4293   -2.1482 H         1 UNK         0.3024 
    100 H100       23.2960   -1.8461   -0.7080 H         1 UNK         0.1171 
    101 H101       22.2705   -3.4049   -2.3866 H         1 UNK         0.0786 
    102 H102       23.0780   -4.3040   -1.1146 H         1 UNK         0.0786 
    103 H103       23.8419   -4.1305   -2.6950 H         1 UNK         0.0786 
    104 H104       25.5278   -3.6054   -0.9516 H         1 UNK         0.2977 
    105 H105       26.3538   -0.8378   -4.5732 H         1 UNK         0.3127 
    106 H106       28.7745    0.4993   -4.7784 H         1 UNK         0.0770 
    107 H107       26.1495    1.6588   -3.7300 H         1 UNK         0.0814 
    108 H108       27.7707    2.1679   -3.2908 H         1 UNK         0.0814 
    109 H109       27.2006    0.5742   -2.8205 H         1 UNK         0.0814 
    110 H110       25.7781    1.2410   -6.5647 H         1 UNK         0.2983 
    111 H111       26.7007    3.7427   -7.6503 H         1 UNK         0.0947 
    112 H112       24.6717    3.5297   -9.0807 H         1 UNK         0.0806 
    113 H113       24.2906    3.1772   -7.4043 H         1 UNK         0.0806 
    114 H114       24.4612    1.8614   -8.5655 H         1 UNK         0.0806 
    115 H115       27.7442    0.5602   -8.4278 H         1 UNK         0.3000 
    116 H116       27.8989    0.7973  -11.2790 H         1 UNK         0.0850 
    117 H117       29.2897   -1.2302  -11.1395 H         1 UNK         0.0810 
    118 H118       27.9227   -1.3919  -10.0481 H         1 UNK         0.0810 
    119 H119       29.5231   -1.0106   -9.4129 H         1 UNK         0.0810 
    120 H120       29.9652    1.9807   -8.7460 H         1 UNK         0.3040 
    121 H121       31.7615    3.2246   -8.5943 H         1 UNK         0.0766 
    122 H122       30.5184    4.7320  -10.1290 H         1 UNK         0.0812 
    123 H123       31.2746    3.9685  -11.5265 H         1 UNK         0.0812 
    124 H124       32.2509    4.8736  -10.3807 H         1 UNK         0.0812 
    125 H125       31.9808    0.9658  -11.2337 H         1 UNK         0.3205 
    126 H126       34.6615    1.0299  -11.9263 H         1 UNK         0.0754 
    127 H127       34.2672   -1.3166  -12.7194 H         1 UNK         0.0769 
    128 H128       32.9169   -0.2709  -13.1247 H         1 UNK         0.0769 
    129 H129       32.7870   -1.3952  -11.7723 H         1 UNK         0.0769 
    130 H130       33.4771    0.0356   -8.8727 H         1 UNK         0.2981 
    131 H131       35.6397   -1.6284   -7.9974 H         1 UNK         0.0541 
    132 H132       37.0421    2.1855   -7.7312 H         1 UNK         0.3459 
    133 H133       35.5251    1.8720   -8.5457 H         1 UNK         0.3459 
    134 H134       34.7480   -1.1399   -5.7055 H         1 UNK         0.0612 
    135 H135       33.5461   -1.7385   -6.8060 H         1 UNK         0.0612 
    136 H136       30.7642    0.7541   -6.4170 H         1 UNK         0.0624 
    137 H137       31.3766   -0.5140   -7.4485 H         1 UNK         0.0624 
@<TRIPOS>BOND
     1    1    2 1    
     2    1   72 1    
     3    1   73 1    
     4    1   74 1    
     5    2    3 2    
     6    2    4 am   BACKBONE|DICT|INTERRES
     7    4    5 1    
     8    4   75 1    
     9    5    6 1    
    10    5   35 1    
    11    5   76 1    
    12    6    7 1    
    13    6   77 1    
    14    6   78 1    
    15    7    8 1    
    16    8    9 1    
    17    8   79 1    
    18    8   80 1    
    19    9   10 ar   
    20    9   14 ar   
    21   10   11 ar   
    22   10   81 1    
    23   11   12 ar   
    24   11   71 1    
    25   12   13 ar   
    26   12   82 1    
    27   13   14 ar   
    28   13   15 1    
    29   14   83 1    
    30   15   16 1    
    31   15   84 1    
    32   15   85 1    
    33   16   17 1    
    34   17   18 1    
    35   17   86 1    
    36   17   87 1    
    37   18   19 1    
    38   18   37 1    
    39   18   88 1    
    40   19   20 am   BACKBONE|DICT|INTERRES
    41   19   89 1    
    42   20   21 2    
    43   20   22 1    
    44   22   23 1    
    45   22   24 1    
    46   22   90 1    
    47   23   91 1    
    48   23   92 1    
    49   23   93 1    
    50   24   25 am   BACKBONE|DICT|INTERRES
    51   24   94 1    
    52   25   26 2    
    53   25   27 1    
    54   27   28 1    
    55   27   29 1    
    56   27   95 1    
    57   28   96 1    
    58   28   97 1    
    59   28   98 1    
    60   29   30 am   BACKBONE|DICT|INTERRES
    61   29   99 1    
    62   30   31 2    
    63   30   32 1    
    64   32   33 1    
    65   32   34 1    
    66   32  100 1    
    67   33  101 1    
    68   33  102 1    
    69   33  103 1    
    70   34   35 am   BACKBONE|DICT|INTERRES
    71   34  104 1    
    72   35   36 2    
    73   37   38 2    
    74   37   39 am   BACKBONE|DICT|INTERRES
    75   39   40 1    
    76   39  105 1    
    77   40   41 1    
    78   40   42 1    
    79   40  106 1    
    80   41  107 1    
    81   41  108 1    
    82   41  109 1    
    83   42   43 2    
    84   42   44 am   BACKBONE|DICT|INTERRES
    85   44   45 1    
    86   44  110 1    
    87   45   46 1    
    88   45   47 1    
    89   45  111 1    
    90   46  112 1    
    91   46  113 1    
    92   46  114 1    
    93   47   48 2    
    94   47   49 am   BACKBONE|DICT|INTERRES
    95   49   50 1    
    96   49  115 1    
    97   50   51 1    
    98   50   52 1    
    99   50  116 1    
   100   51  117 1    
   101   51  118 1    
   102   51  119 1    
   103   52   53 2    
   104   52   54 am   BACKBONE|DICT|INTERRES
   105   54   55 1    
   106   54  120 1    
   107   55   56 1    
   108   55   57 1    
   109   55  121 1    
   110   56  122 1    
   111   56  123 1    
   112   56  124 1    
   113   57   58 2    
   114   57   59 am   BACKBONE|DICT|INTERRES
   115   59   60 1    
   116   59  125 1    
   117   60   61 1    
   118   60   62 1    
   119   60  126 1    
   120   61  127 1    
   121   61  128 1    
   122   61  129 1    
   123   62   63 2    
   124   62   64 am   BACKBONE|DICT|INTERRES
   125   64   65 1    
   126   64  130 1    
   127   65   66 1    
   128   65   69 1    
   129   65  131 1    
   130   66   67 am   BACKBONE|DICT|INTERRES
   131   66   68 2    
   132   67  132 1    
   133   67  133 1    
   134   69   70 1    
   135   69  134 1    
   136   69  135 1    
   137   70   71 1    
   138   71  136 1    
   139   71  137 1    
@<TRIPOS>SUBSTRUCTURE
     1 UNK         1 GROUP             0       ****    0 ROOT    
