@<TRIPOS>MOLECULE
3R137
137   139    1
SMALL
USER_CHARGES


@<TRIPOS>ATOM
      1 CA         28.4693   -6.2224   -5.2189 C.3       0 UNK        -0.2020 
      2 C          27.6439   -6.0879   -3.9475 C.2       0 UNK         0.4855 
      3 O          27.0260   -7.0605   -3.5143 O.2       0 UNK        -0.5197 
      4 N          27.6243   -4.8935   -3.3481 N.am      1 UNK        -0.4892 
      5 CA         26.8635   -4.5553   -2.1485 C.3       1 UNK         0.0835 
      6 C6         27.5385   -5.0772   -0.8473 C.3       12 UNK        -0.0855 
      7 S7         28.9190   -4.1001   -0.1524 S.3       12 UNK        -0.2931 
      8 C8         30.2703   -4.3405   -1.3590 C.3       12 UNK         0.0378 
      9 C9         30.4656   -3.1231   -2.2591 C.ar      12 UNK        -0.0802 
     10 C10        30.5568   -3.2643   -3.6485 C.ar      12 UNK        -0.0944 
     11 C11        30.7361   -2.1428   -4.4663 C.ar      12 UNK        -0.0787 
     12 C12        30.8468   -0.8774   -3.8841 C.ar      12 UNK        -0.0862 
     13 C13        30.7534   -0.7195   -2.4988 C.ar      12 UNK        -0.0733 
     14 C14        30.5775   -1.8480   -1.6953 C.ar      12 UNK        -0.0832 
     15 C15        30.8158    0.6604   -1.8499 C.3       12 UNK         0.0240 
     16 S16        29.7910    1.9317   -2.6715 S.3       12 UNK        -0.2522 
     17 C17        28.2160    1.0682   -3.0117 C.3       12 UNK        -0.0967 
     18 CA         27.9273    1.0297   -4.5367 C.3       5 UNK         0.0660 
     19 N          27.2467   -0.2029   -4.9542 N.am      5 UNK        -0.4015 
     20 C          26.9233   -0.5214   -6.2185 C.2       4 UNK         0.4946 
     21 O          27.1890    0.1775   -7.1925 O.2       4 UNK        -0.5353 
     22 CA         26.1076   -1.8030   -6.4338 C.3       4 UNK         0.0277 
     23 CB         27.0112   -3.0451   -6.4141 C.3       4 UNK        -0.1981 
     24 N          25.0506   -1.9205   -5.4291 N.am      4 UNK        -0.4209 
     25 C          23.9186   -1.2000   -5.4491 C.2       3 UNK         0.4942 
     26 O          23.5975   -0.4553   -6.3749 O.2       3 UNK        -0.5208 
     27 CA         22.9982   -1.3039   -4.2196 C.3       3 UNK         0.0250 
     28 CB         21.9588   -2.4188   -4.4169 C.3       3 UNK        -0.1990 
     29 N          23.7273   -1.5324   -2.9688 N.am      3 UNK        -0.4232 
     30 C          24.5701   -0.6544   -2.4053 C.2       2 UNK         0.4993 
     31 O          24.7954    0.4681   -2.8585 O.2       2 UNK        -0.5286 
     32 CA         25.3392   -1.1412   -1.1635 C.3       2 UNK         0.0209 
     33 CB         24.5124   -0.9112    0.1112 C.3       2 UNK        -0.1931 
     34 N          25.7461   -2.5520   -1.2431 N.am      2 UNK        -0.4546 
     35 C          26.5665   -3.0432   -2.1827 C.2       1 UNK         0.5154 
     36 O          27.0441   -2.3480   -3.0855 O.2       1 UNK        -0.5181 
     37 C          27.1861    2.3032   -4.9910 C.2       5 UNK         0.5014 
     38 O          27.8210    3.2297   -5.4963 O.2       5 UNK        -0.5248 
     39 N          25.8507    2.2987   -4.8688 N.am      6 UNK        -0.4434 
     40 CA         24.9518    3.3549   -5.3465 C.3       6 UNK         0.0363 
     41 CB         23.5142    3.0154   -4.9216 C.3       6 UNK        -0.1936 
     42 C          25.0155    3.6171   -6.8666 C.2       6 UNK         0.5081 
     43 O          24.6507    4.7116   -7.2969 O.2       6 UNK        -0.5248 
     44 N          25.4835    2.6335   -7.6460 N.am      7 UNK        -0.4718 
     45 CA         25.7040    2.7212   -9.0910 C.3       7 UNK         0.0273 
     46 CB         24.9858    1.5333   -9.7567 C.3       7 UNK        -0.1935 
     47 C          27.2044    2.7211   -9.4461 C.2       7 UNK         0.5018 
     48 O          27.5365    2.5950  -10.6265 O.2       7 UNK        -0.5186 
     49 N          28.0866    2.8148   -8.4379 N.am      8 UNK        -0.4240 
     50 CA         29.5500    2.6705   -8.4609 C.3       8 UNK         0.0235 
     51 CB         30.2214    3.7453   -9.3377 C.3       8 UNK        -0.2000 
     52 C          30.0420    1.2582   -8.8304 C.2       8 UNK         0.4941 
     53 O          30.9140    0.7294   -8.1406 O.2       8 UNK        -0.5273 
     54 N          29.5029    0.6890   -9.9195 N.am      9 UNK        -0.4262 
     55 CA         29.7206   -0.6677  -10.4456 C.3       9 UNK         0.0264 
     56 CB         29.0059   -1.6973   -9.5482 C.3       9 UNK        -0.1955 
     57 C          31.1992   -1.0338  -10.6994 C.2       9 UNK         0.5031 
     58 O          31.5562   -2.2118  -10.6436 O.2       9 UNK        -0.5390 
     59 N          32.0276   -0.0127  -10.9659 N.am      10 UNK        -0.4204 
     60 CA         33.4843   -0.0550  -11.1430 C.3       10 UNK         0.0237 
     61 CB         33.8663   -0.8709  -12.3974 C.3       10 UNK        -0.1985 
     62 C          34.2732   -0.4944   -9.8887 C.2       10 UNK         0.4970 
     63 O          35.4502   -0.8376  -10.0190 O.2       10 UNK        -0.4914 
     64 N          33.6500   -0.4574   -8.7020 N.am      11 UNK        -0.4285 
     65 CA         34.3169   -0.7081   -7.4156 C.3       11 UNK         0.1007 
     66 C          35.2273    0.4773   -6.9918 C.2       11 UNK         0.5703 
     67 N          36.2692    0.2093   -6.2161 N.am      11 UNK        -0.7361 
     68 O          34.9850    1.6356   -7.3286 O.2       11 UNK        -0.4986 
     69 C69        33.3015   -1.0514   -6.2971 C.3       12 UNK        -0.0947 
     70 S70        32.4531   -2.6390   -6.5931 S.3       12 UNK        -0.2240 
     71 C71        30.7781   -2.2853   -5.9807 C.3       12 UNK         0.0194 
     72 H72        29.2980   -6.9109   -5.0562 H         1 UNK         0.0906 
     73 H73        27.8522   -6.6174   -6.0255 H         1 UNK         0.0906 
     74 H74        28.8793   -5.2689   -5.5479 H         1 UNK         0.0906 
     75 H75        28.1038   -4.0922   -3.7405 H         1 UNK         0.3140 
     76 H76        25.8914   -5.0458   -2.2383 H         1 UNK         0.1085 
     77 H77        27.8772   -6.1055   -0.9828 H         1 UNK         0.0836 
     78 H78        26.7819   -5.1381   -0.0635 H         1 UNK         0.0836 
     79 H79        30.0904   -5.2429   -1.9448 H         1 UNK         0.0731 
     80 H80        31.1974   -4.5130   -0.8110 H         1 UNK         0.0731 
     81 H81        30.4916   -4.2459   -4.0954 H         1 UNK         0.1312 
     82 H82        30.9807   -0.0080   -4.5118 H         1 UNK         0.1406 
     83 H83        30.5105   -1.7350   -0.6217 H         1 UNK         0.1631 
     84 H84        31.8528    0.9980   -1.8403 H         1 UNK         0.0717 
     85 H85        30.5016    0.6040   -0.8066 H         1 UNK         0.0717 
     86 H86        28.2622    0.0584   -2.6043 H         1 UNK         0.0934 
     87 H87        27.4131    1.5554   -2.4544 H         1 UNK         0.0934 
     88 H88        28.8764    1.0153   -5.0765 H         1 UNK         0.0739 
     89 H89        27.0412   -0.8769   -4.2205 H         1 UNK         0.3093 
     90 H90        25.6403   -1.7452   -7.4197 H         1 UNK         0.0818 
     91 H91        27.6881   -3.0411   -7.2683 H         1 UNK         0.0819 
     92 H92        26.4295   -3.9654   -6.4678 H         1 UNK         0.0819 
     93 H93        27.6281   -3.0829   -5.5183 H         1 UNK         0.0819 
     94 H94        25.2585   -2.4763   -4.6123 H         1 UNK         0.3041 
     95 H95        22.4681   -0.3533   -4.1274 H         1 UNK         0.0784 
     96 H96        21.3846   -2.2582   -5.3307 H         1 UNK         0.0793 
     97 H97        22.4268   -3.4010   -4.4949 H         1 UNK         0.0793 
     98 H98        21.2472   -2.4490   -3.5915 H         1 UNK         0.0793 
     99 H99        23.5987   -2.4277   -2.5203 H         1 UNK         0.3024 
    100 H100       26.2482   -0.5399   -1.0922 H         1 UNK         0.1171 
    101 H101       25.0854   -1.1582    1.0052 H         1 UNK         0.0786 
    102 H102       24.2147    0.1348    0.1990 H         1 UNK         0.0786 
    103 H103       23.6016   -1.5112    0.1188 H         1 UNK         0.0786 
    104 H104       25.3936   -3.1692   -0.5253 H         1 UNK         0.2977 
    105 H105       25.4181    1.5231   -4.3721 H         1 UNK         0.3127 
    106 H106       25.2465    4.2806   -4.8483 H         1 UNK         0.0770 
    107 H107       23.1684    2.0888   -5.3810 H         1 UNK         0.0814 
    108 H108       22.8218    3.8046   -5.2175 H         1 UNK         0.0814 
    109 H109       23.4347    2.9031   -3.8401 H         1 UNK         0.0814 
    110 H110       25.7922    1.7688   -7.2134 H         1 UNK         0.2983 
    111 H111       25.2826    3.6463   -9.4896 H         1 UNK         0.0947 
    112 H112       25.0690    1.5790  -10.8433 H         1 UNK         0.0806 
    113 H113       23.9229    1.5271   -9.5148 H         1 UNK         0.0806 
    114 H114       25.4070    0.5795   -9.4351 H         1 UNK         0.0806 
    115 H115       27.7022    2.8986   -7.5023 H         1 UNK         0.3000 
    116 H116       29.8695    2.8448   -7.4320 H         1 UNK         0.0850 
    117 H117       31.3079    3.6825   -9.2626 H         1 UNK         0.0810 
    118 H118       29.9331    4.7479   -9.0220 H         1 UNK         0.0810 
    119 H119       29.9635    3.6394  -10.3916 H         1 UNK         0.0810 
    120 H120       28.8039    1.2462  -10.4074 H         1 UNK         0.3040 
    121 H121       29.2367   -0.6922  -11.4229 H         1 UNK         0.0766 
    122 H122       27.9559   -1.4395   -9.4090 H         1 UNK         0.0812 
    123 H123       29.4689   -1.7533   -8.5644 H         1 UNK         0.0812 
    124 H124       29.0395   -2.6964   -9.9839 H         1 UNK         0.0812 
    125 H125       31.6171    0.9106  -10.9770 H         1 UNK         0.3205 
    126 H126       33.7863    0.9773  -11.3255 H         1 UNK         0.0754 
    127 H127       34.9270   -0.7641  -12.6280 H         1 UNK         0.0769 
    128 H128       33.3122   -0.5347  -13.2739 H         1 UNK         0.0769 
    129 H129       33.6703   -1.9352  -12.2640 H         1 UNK         0.0769 
    130 H130       32.6894   -0.1348   -8.6460 H         1 UNK         0.2981 
    131 H131       34.9664   -1.5761   -7.5473 H         1 UNK         0.0541 
    132 H132       36.4737   -0.7340   -5.9246 H         1 UNK         0.3459 
    133 H133       36.8662    0.9655   -5.9197 H         1 UNK         0.3459 
    134 H134       33.7969   -1.1289   -5.3275 H         1 UNK         0.0612 
    135 H135       32.5687   -0.2492   -6.2045 H         1 UNK         0.0612 
    136 H136       30.3977   -1.3795   -6.4545 H         1 UNK         0.0624 
    137 H137       30.1168   -3.0935   -6.2939 H         1 UNK         0.0624 
@<TRIPOS>BOND
     1    1    2 1    
     2    1   72 1    
     3    1   73 1    
     4    1   74 1    
     5    2    3 2    
     6    2    4 am   BACKBONE|DICT|INTERRES
     7    4    5 1    
     8    4   75 1    
     9    5    6 1    
    10    5   35 1    
    11    5   76 1    
    12    6    7 1    
    13    6   77 1    
    14    6   78 1    
    15    7    8 1    
    16    8    9 1    
    17    8   79 1    
    18    8   80 1    
    19    9   10 ar   
    20    9   14 ar   
    21   10   11 ar   
    22   10   81 1    
    23   11   12 ar   
    24   11   71 1    
    25   12   13 ar   
    26   12   82 1    
    27   13   14 ar   
    28   13   15 1    
    29   14   83 1    
    30   15   16 1    
    31   15   84 1    
    32   15   85 1    
    33   16   17 1    
    34   17   18 1    
    35   17   86 1    
    36   17   87 1    
    37   18   19 1    
    38   18   37 1    
    39   18   88 1    
    40   19   20 am   BACKBONE|DICT|INTERRES
    41   19   89 1    
    42   20   21 2    
    43   20   22 1    
    44   22   23 1    
    45   22   24 1    
    46   22   90 1    
    47   23   91 1    
    48   23   92 1    
    49   23   93 1    
    50   24   25 am   BACKBONE|DICT|INTERRES
    51   24   94 1    
    52   25   26 2    
    53   25   27 1    
    54   27   28 1    
    55   27   29 1    
    56   27   95 1    
    57   28   96 1    
    58   28   97 1    
    59   28   98 1    
    60   29   30 am   BACKBONE|DICT|INTERRES
    61   29   99 1    
    62   30   31 2    
    63   30   32 1    
    64   32   33 1    
    65   32   34 1    
    66   32  100 1    
    67   33  101 1    
    68   33  102 1    
    69   33  103 1    
    70   34   35 am   BACKBONE|DICT|INTERRES
    71   34  104 1    
    72   35   36 2    
    73   37   38 2    
    74   37   39 am   BACKBONE|DICT|INTERRES
    75   39   40 1    
    76   39  105 1    
    77   40   41 1    
    78   40   42 1    
    79   40  106 1    
    80   41  107 1    
    81   41  108 1    
    82   41  109 1    
    83   42   43 2    
    84   42   44 am   BACKBONE|DICT|INTERRES
    85   44   45 1    
    86   44  110 1    
    87   45   46 1    
    88   45   47 1    
    89   45  111 1    
    90   46  112 1    
    91   46  113 1    
    92   46  114 1    
    93   47   48 2    
    94   47   49 am   BACKBONE|DICT|INTERRES
    95   49   50 1    
    96   49  115 1    
    97   50   51 1    
    98   50   52 1    
    99   50  116 1    
   100   51  117 1    
   101   51  118 1    
   102   51  119 1    
   103   52   53 2    
   104   52   54 am   BACKBONE|DICT|INTERRES
   105   54   55 1    
   106   54  120 1    
   107   55   56 1    
   108   55   57 1    
   109   55  121 1    
   110   56  122 1    
   111   56  123 1    
   112   56  124 1    
   113   57   58 2    
   114   57   59 am   BACKBONE|DICT|INTERRES
   115   59   60 1    
   116   59  125 1    
   117   60   61 1    
   118   60   62 1    
   119   60  126 1    
   120   61  127 1    
   121   61  128 1    
   122   61  129 1    
   123   62   63 2    
   124   62   64 am   BACKBONE|DICT|INTERRES
   125   64   65 1    
   126   64  130 1    
   127   65   66 1    
   128   65   69 1    
   129   65  131 1    
   130   66   67 am   BACKBONE|DICT|INTERRES
   131   66   68 2    
   132   67  132 1    
   133   67  133 1    
   134   69   70 1    
   135   69  134 1    
   136   69  135 1    
   137   70   71 1    
   138   71  136 1    
   139   71  137 1    
@<TRIPOS>SUBSTRUCTURE
     1 UNK         1 GROUP             0       ****    0 ROOT    
