@<TRIPOS>MOLECULE
3R137
137   139    1
SMALL
USER_CHARGES


@<TRIPOS>ATOM
      1 CA         27.9854   -6.2686    0.3180 C.3       0 UNK        -0.2020 
      2 C          27.9293   -4.9961   -0.5133 C.2       0 UNK         0.4855 
      3 O          28.4019   -3.9501   -0.0661 O.2       0 UNK        -0.5197 
      4 N          27.3544   -5.0732   -1.7199 N.am      1 UNK        -0.4892 
      5 CA         27.1985   -3.9538   -2.6532 C.3       1 UNK         0.0835 
      6 C6         27.0391   -4.4397   -4.1191 C.3       12 UNK        -0.0855 
      7 S7         28.4284   -5.4553   -4.7337 S.3       12 UNK        -0.2931 
      8 C8         29.2163   -4.3483   -5.9507 C.3       12 UNK         0.0378 
      9 C9         30.2776   -3.4775   -5.2964 C.ar      12 UNK        -0.0802 
     10 C10        31.6300   -3.8062   -5.4109 C.ar      12 UNK        -0.0944 
     11 C11        32.6038   -3.0379   -4.7669 C.ar      12 UNK        -0.0787 
     12 C12        32.2120   -1.9373   -3.9976 C.ar      12 UNK        -0.0862 
     13 C13        30.8609   -1.5953   -3.8677 C.ar      12 UNK        -0.0733 
     14 C14        29.9040   -2.3621   -4.5461 C.ar      12 UNK        -0.0832 
     15 C15        30.4907   -0.4344   -2.9404 C.3       12 UNK         0.0240 
     16 S16        28.7013   -0.1899   -2.6501 S.3       12 UNK        -0.2522 
     17 C17        28.2696    1.0916   -3.8730 C.3       12 UNK        -0.0967 
     18 CA         27.7021    0.5297   -5.1993 C.3       5 UNK         0.0660 
     19 N          26.4370   -0.2074   -5.0476 N.am      5 UNK        -0.4015 
     20 C          25.8451   -0.8658   -6.0621 C.2       4 UNK         0.4946 
     21 O          26.3918   -1.0344   -7.1523 O.2       4 UNK        -0.5353 
     22 CA         24.3924   -1.3514   -5.9038 C.3       4 UNK         0.0277 
     23 CB         24.2450   -2.8583   -6.1719 C.3       4 UNK        -0.1981 
     24 N          23.7859   -1.0044   -4.6187 N.am      4 UNK        -0.4209 
     25 C          23.2841    0.2057   -4.3287 C.2       3 UNK         0.4942 
     26 O          23.2815    1.1468   -5.1235 O.2       3 UNK        -0.5208 
     27 CA         22.7338    0.4224   -2.9059 C.3       3 UNK         0.0250 
     28 CB         21.2211    0.1536   -2.8689 C.3       3 UNK        -0.1990 
     29 N          23.3978   -0.3917   -1.8819 N.am      3 UNK        -0.4232 
     30 C          24.7059   -0.3363   -1.5947 C.2       2 UNK         0.4993 
     31 O          25.4831    0.4351   -2.1567 O.2       2 UNK        -0.5286 
     32 CA         25.2577   -1.3308   -0.5529 C.3       2 UNK         0.0209 
     33 CB         24.1680   -2.1057    0.2231 C.3       2 UNK        -0.1931 
     34 N          26.2146   -2.2708   -1.1524 N.am      2 UNK        -0.4546 
     35 C          26.0148   -3.0598   -2.2181 C.2       1 UNK         0.5154 
     36 O          24.9445   -3.1171   -2.8285 O.2       1 UNK        -0.5181 
     37 C          27.5834    1.6658   -6.2353 C.2       5 UNK         0.5014 
     38 O          28.5560    1.9234   -6.9420 O.2       5 UNK        -0.5248 
     39 N          26.4026    2.2948   -6.3441 N.am      6 UNK        -0.4434 
     40 CA         26.1050    3.3081   -7.3595 C.3       6 UNK         0.0363 
     41 CB         24.7568    3.9733   -7.0410 C.3       6 UNK        -0.1936 
     42 C          26.1039    2.7362   -8.7887 C.2       6 UNK         0.5081 
     43 O          26.5920    3.3972   -9.7047 O.2       6 UNK        -0.5248 
     44 N          25.5818    1.5119   -8.9488 N.am      7 UNK        -0.4718 
     45 CA         25.5587    0.7792  -10.2173 C.3       7 UNK         0.0273 
     46 CB         24.5324   -0.3628  -10.1340 C.3       7 UNK        -0.1935 
     47 C          26.9464    0.2402  -10.6002 C.2       7 UNK         0.5018 
     48 O          27.3267    0.3173  -11.7685 O.2       7 UNK        -0.5186 
     49 N          27.6834   -0.2733   -9.6059 N.am      8 UNK        -0.4240 
     50 CA         29.0409   -0.8049   -9.7518 C.3       8 UNK         0.0235 
     51 CB         29.3274   -1.7484   -8.5710 C.3       8 UNK        -0.2000 
     52 C          30.1363    0.2735   -9.8506 C.2       8 UNK         0.4941 
     53 O          31.2992   -0.0904  -10.0285 O.2       8 UNK        -0.5273 
     54 N          29.7773    1.5570   -9.6799 N.am      9 UNK        -0.4262 
     55 CA         30.6661    2.7275   -9.6005 C.3       9 UNK         0.0264 
     56 CB         31.2951    3.0285  -10.9769 C.3       9 UNK        -0.1955 
     57 C          31.7156    2.5868   -8.4780 C.2       9 UNK         0.5031 
     58 O          32.8913    2.9031   -8.6766 O.2       9 UNK        -0.5390 
     59 N          31.2646    2.0419   -7.3377 N.am      10 UNK        -0.4204 
     60 CA         32.0288    1.6362   -6.1534 C.3       10 UNK         0.0237 
     61 CB         32.4046    2.8768   -5.3181 C.3       10 UNK        -0.1985 
     62 C          33.2391    0.7318   -6.4704 C.2       10 UNK         0.4970 
     63 O          34.2634    0.8438   -5.7961 O.2       10 UNK        -0.4914 
     64 N          33.0997   -0.1045   -7.5125 N.am      11 UNK        -0.4285 
     65 CA         34.1353   -0.9366   -8.1484 C.3       11 UNK         0.1007 
     66 C          35.4229   -0.1856   -8.6108 C.2       11 UNK         0.5703 
     67 N          35.3693    1.1200   -8.8551 N.am      11 UNK        -0.7361 
     68 O          36.4748   -0.7935   -8.7971 O.2       11 UNK        -0.4986 
     69 C69        34.3748   -2.3095   -7.4499 C.3       12 UNK        -0.0947 
     70 S70        35.0921   -2.2397   -5.7723 S.3       12 UNK        -0.2240 
     71 C71        34.0718   -3.4383   -4.8560 C.3       12 UNK         0.0194 
     72 H72        27.4510   -6.1268    1.2570 H         1 UNK         0.0906 
     73 H73        27.5394   -7.1163   -0.2020 H         1 UNK         0.0906 
     74 H74        29.0203   -6.5195    0.5492 H         1 UNK         0.0906 
     75 H75        26.9788   -5.9559   -2.0371 H         1 UNK         0.3140 
     76 H76        28.1005   -3.3413   -2.6016 H         1 UNK         0.1085 
     77 H77        26.9068   -3.5835   -4.7811 H         1 UNK         0.0836 
     78 H78        26.1331   -5.0403   -4.2218 H         1 UNK         0.0836 
     79 H79        29.6653   -4.9587   -6.7358 H         1 UNK         0.0731 
     80 H80        28.4671   -3.7291   -6.4451 H         1 UNK         0.0731 
     81 H81        31.9234   -4.6740   -5.9858 H         1 UNK         0.1312 
     82 H82        32.9657   -1.3582   -3.4810 H         1 UNK         0.1406 
     83 H83        28.8539   -2.1303   -4.4685 H         1 UNK         0.1631 
     84 H84        30.9455    0.4882   -3.3004 H         1 UNK         0.0717 
     85 H85        30.9448   -0.6283   -1.9676 H         1 UNK         0.0717 
     86 H86        29.1529    1.7063   -4.0581 H         1 UNK         0.0934 
     87 H87        27.5428    1.7601   -3.4075 H         1 UNK         0.0934 
     88 H88        28.4356   -0.1669   -5.6060 H         1 UNK         0.0739 
     89 H89        25.9570   -0.0976   -4.1602 H         1 UNK         0.3093 
     90 H90        23.8300   -0.8430   -6.6901 H         1 UNK         0.0818 
     91 H91        23.1951   -3.1355   -6.2665 H         1 UNK         0.0819 
     92 H92        24.7366   -3.1469   -7.1021 H         1 UNK         0.0819 
     93 H93        24.6705   -3.4634   -5.3760 H         1 UNK         0.0819 
     94 H94        23.8253   -1.7142   -3.8934 H         1 UNK         0.3041 
     95 H95        22.9016    1.4709   -2.6508 H         1 UNK         0.0784 
     96 H96        20.6982    0.7654   -3.6056 H         1 UNK         0.0793 
     97 H97        20.9903   -0.8896   -3.0890 H         1 UNK         0.0793 
     98 H98        20.7981    0.3938   -1.8932 H         1 UNK         0.0793 
     99 H99        22.8291   -1.0709   -1.3971 H         1 UNK         0.3024 
    100 H100       25.8168   -0.7300    0.1664 H         1 UNK         0.1171 
    101 H101       24.6146   -2.7266    1.0000 H         1 UNK         0.0786 
    102 H102       23.5859   -2.7638   -0.4232 H         1 UNK         0.0786 
    103 H103       23.4762   -1.4254    0.7219 H         1 UNK         0.0786 
    104 H104       27.1204   -2.3310   -0.7000 H         1 UNK         0.2977 
    105 H105       25.6435    2.0266   -5.7320 H         1 UNK         0.3127 
    106 H106       26.8835    4.0727   -7.3101 H         1 UNK         0.0770 
    107 H107       23.9378    3.2526   -7.0454 H         1 UNK         0.0814 
    108 H108       24.5183    4.7430   -7.7764 H         1 UNK         0.0814 
    109 H109       24.7732    4.4551   -6.0633 H         1 UNK         0.0814 
    110 H110       25.2347    1.0255   -8.1355 H         1 UNK         0.2983 
    111 H111       25.2403    1.4657  -11.0053 H         1 UNK         0.0947 
    112 H112       24.4743   -0.9021  -11.0804 H         1 UNK         0.0806 
    113 H113       23.5336    0.0162   -9.9168 H         1 UNK         0.0806 
    114 H114       24.7910   -1.0890   -9.3625 H         1 UNK         0.0806 
    115 H115       27.2581   -0.3629   -8.6852 H         1 UNK         0.3000 
    116 H116       29.0848   -1.3898  -10.6730 H         1 UNK         0.0850 
    117 H117       30.3077   -2.2181   -8.6645 H         1 UNK         0.0810 
    118 H118       28.5895   -2.5489   -8.5247 H         1 UNK         0.0810 
    119 H119       29.3088   -1.2192   -7.6180 H         1 UNK         0.0810 
    120 H120       28.8018    1.7404   -9.4861 H         1 UNK         0.3040 
    121 H121       30.0358    3.5752   -9.3273 H         1 UNK         0.0766 
    122 H122       31.8650    3.9581  -10.9510 H         1 UNK         0.0812 
    123 H123       30.5308    3.1381  -11.7462 H         1 UNK         0.0812 
    124 H124       31.9774    2.2380  -11.2914 H         1 UNK         0.0812 
    125 H125       30.2566    1.8827   -7.2771 H         1 UNK         0.3205 
    126 H126       31.3499    1.0251   -5.5589 H         1 UNK         0.0754 
    127 H127       32.8673    2.5908   -4.3727 H         1 UNK         0.0769 
    128 H128       31.5245    3.4735   -5.0782 H         1 UNK         0.0769 
    129 H129       33.1101    3.5171   -5.8490 H         1 UNK         0.0769 
    130 H130       32.2375   -0.0567   -8.0397 H         1 UNK         0.2981 
    131 H131       33.6780   -1.1975   -9.1032 H         1 UNK         0.0541 
    132 H132       34.5071    1.6398   -8.7279 H         1 UNK         0.3459 
    133 H133       36.2001    1.5961   -9.1670 H         1 UNK         0.3459 
    134 H134       35.0271   -2.9335   -8.0628 H         1 UNK         0.0612 
    135 H135       33.4281   -2.8478   -7.4112 H         1 UNK         0.0612 
    136 H136       34.1803   -4.4189   -5.3221 H         1 UNK         0.0624 
    137 H137       34.4733   -3.5359   -3.8466 H         1 UNK         0.0624 
@<TRIPOS>BOND
     1    1    2 1    
     2    1   72 1    
     3    1   73 1    
     4    1   74 1    
     5    2    3 2    
     6    2    4 am   BACKBONE|DICT|INTERRES
     7    4    5 1    
     8    4   75 1    
     9    5    6 1    
    10    5   35 1    
    11    5   76 1    
    12    6    7 1    
    13    6   77 1    
    14    6   78 1    
    15    7    8 1    
    16    8    9 1    
    17    8   79 1    
    18    8   80 1    
    19    9   10 ar   
    20    9   14 ar   
    21   10   11 ar   
    22   10   81 1    
    23   11   12 ar   
    24   11   71 1    
    25   12   13 ar   
    26   12   82 1    
    27   13   14 ar   
    28   13   15 1    
    29   14   83 1    
    30   15   16 1    
    31   15   84 1    
    32   15   85 1    
    33   16   17 1    
    34   17   18 1    
    35   17   86 1    
    36   17   87 1    
    37   18   19 1    
    38   18   37 1    
    39   18   88 1    
    40   19   20 am   BACKBONE|DICT|INTERRES
    41   19   89 1    
    42   20   21 2    
    43   20   22 1    
    44   22   23 1    
    45   22   24 1    
    46   22   90 1    
    47   23   91 1    
    48   23   92 1    
    49   23   93 1    
    50   24   25 am   BACKBONE|DICT|INTERRES
    51   24   94 1    
    52   25   26 2    
    53   25   27 1    
    54   27   28 1    
    55   27   29 1    
    56   27   95 1    
    57   28   96 1    
    58   28   97 1    
    59   28   98 1    
    60   29   30 am   BACKBONE|DICT|INTERRES
    61   29   99 1    
    62   30   31 2    
    63   30   32 1    
    64   32   33 1    
    65   32   34 1    
    66   32  100 1    
    67   33  101 1    
    68   33  102 1    
    69   33  103 1    
    70   34   35 am   BACKBONE|DICT|INTERRES
    71   34  104 1    
    72   35   36 2    
    73   37   38 2    
    74   37   39 am   BACKBONE|DICT|INTERRES
    75   39   40 1    
    76   39  105 1    
    77   40   41 1    
    78   40   42 1    
    79   40  106 1    
    80   41  107 1    
    81   41  108 1    
    82   41  109 1    
    83   42   43 2    
    84   42   44 am   BACKBONE|DICT|INTERRES
    85   44   45 1    
    86   44  110 1    
    87   45   46 1    
    88   45   47 1    
    89   45  111 1    
    90   46  112 1    
    91   46  113 1    
    92   46  114 1    
    93   47   48 2    
    94   47   49 am   BACKBONE|DICT|INTERRES
    95   49   50 1    
    96   49  115 1    
    97   50   51 1    
    98   50   52 1    
    99   50  116 1    
   100   51  117 1    
   101   51  118 1    
   102   51  119 1    
   103   52   53 2    
   104   52   54 am   BACKBONE|DICT|INTERRES
   105   54   55 1    
   106   54  120 1    
   107   55   56 1    
   108   55   57 1    
   109   55  121 1    
   110   56  122 1    
   111   56  123 1    
   112   56  124 1    
   113   57   58 2    
   114   57   59 am   BACKBONE|DICT|INTERRES
   115   59   60 1    
   116   59  125 1    
   117   60   61 1    
   118   60   62 1    
   119   60  126 1    
   120   61  127 1    
   121   61  128 1    
   122   61  129 1    
   123   62   63 2    
   124   62   64 am   BACKBONE|DICT|INTERRES
   125   64   65 1    
   126   64  130 1    
   127   65   66 1    
   128   65   69 1    
   129   65  131 1    
   130   66   67 am   BACKBONE|DICT|INTERRES
   131   66   68 2    
   132   67  132 1    
   133   67  133 1    
   134   69   70 1    
   135   69  134 1    
   136   69  135 1    
   137   70   71 1    
   138   71  136 1    
   139   71  137 1    
@<TRIPOS>SUBSTRUCTURE
     1 UNK         1 GROUP             0       ****    0 ROOT    
