@<TRIPOS>MOLECULE
3R137
137   139    1
SMALL
USER_CHARGES


@<TRIPOS>ATOM
      1 CA         23.3453   -0.9351   -7.0273 C.3       0 UNK        -0.2020 
      2 C          23.3685   -2.2445   -6.2515 C.2       0 UNK         0.4855 
      3 O          22.4963   -3.0908   -6.4514 O.2       0 UNK        -0.5197 
      4 N          24.3629   -2.4111   -5.3753 N.am      1 UNK        -0.4892 
      5 CA         24.5317   -3.5671   -4.4885 C.3       1 UNK         0.0835 
      6 C6         26.0179   -4.0087   -4.4399 C.3       12 UNK        -0.0855 
      7 S7         26.5602   -4.7174   -6.0302 S.3       12 UNK        -0.2931 
      8 C8         28.2183   -5.3344   -5.5992 C.3       12 UNK         0.0378 
      9 C9         29.1642   -4.1938   -5.2578 C.ar      12 UNK        -0.0802 
     10 C10        29.6533   -3.3676   -6.2730 C.ar      12 UNK        -0.0944 
     11 C11        30.4838   -2.2870   -5.9692 C.ar      12 UNK        -0.0787 
     12 C12        30.8608   -2.0625   -4.6433 C.ar      12 UNK        -0.0862 
     13 C13        30.3666   -2.8726   -3.6159 C.ar      12 UNK        -0.0733 
     14 C14        29.5237   -3.9426   -3.9299 C.ar      12 UNK        -0.0832 
     15 C15        30.7045   -2.5636   -2.1637 C.3       12 UNK         0.0240 
     16 S16        29.4362   -1.5031   -1.3884 S.3       12 UNK        -0.2522 
     17 C17        29.6611    0.0550   -2.3093 C.3       12 UNK        -0.0967 
     18 CA         28.6216    0.1955   -3.4541 C.3       5 UNK         0.0660 
     19 N          27.3035    0.5797   -2.9434 N.am      5 UNK        -0.4015 
     20 C          26.1391    0.4207   -3.5821 C.2       4 UNK         0.4946 
     21 O          26.0285   -0.1508   -4.6723 O.2       4 UNK        -0.5353 
     22 CA         24.9075    1.0112   -2.8802 C.3       4 UNK         0.0277 
     23 CB         23.6784    1.0948   -3.8046 C.3       4 UNK        -0.1981 
     24 N          24.5768    0.2332   -1.6856 N.am      4 UNK        -0.4209 
     25 C          25.1345    0.4155   -0.4790 C.2       3 UNK         0.4942 
     26 O          26.0070    1.2593   -0.2650 O.2       3 UNK        -0.5208 
     27 CA         24.6481   -0.4630    0.6900 C.3       3 UNK         0.0250 
     28 CB         23.6578    0.3200    1.5679 C.3       3 UNK        -0.1990 
     29 N          24.0164   -1.7108    0.2565 N.am      3 UNK        -0.4232 
     30 C          24.6865   -2.8035   -0.1315 C.2       2 UNK         0.4993 
     31 O          25.9133   -2.9031   -0.0938 O.2       2 UNK        -0.5286 
     32 CA         23.8644   -3.9796   -0.6976 C.3       2 UNK         0.0209 
     33 CB         22.3432   -3.8870   -0.4316 C.3       2 UNK        -0.1931 
     34 N          24.1373   -4.1552   -2.1310 N.am      2 UNK        -0.4546 
     35 C          23.9892   -3.2220   -3.0848 C.2       1 UNK         0.5154 
     36 O          23.4609   -2.1268   -2.8728 O.2       1 UNK        -0.5181 
     37 C          29.0869    1.1582   -4.5695 C.2       5 UNK         0.5014 
     38 O          30.0760    1.8739   -4.4037 O.2       5 UNK        -0.5248 
     39 N          28.3488    1.1654   -5.6845 N.am      6 UNK        -0.4434 
     40 CA         28.6136    1.9746   -6.8743 C.3       6 UNK         0.0363 
     41 CB         28.0648    3.4004   -6.6703 C.3       6 UNK        -0.1936 
     42 C          28.0542    1.3251   -8.1520 C.2       6 UNK         0.5081 
     43 O          28.0070    1.9916   -9.1855 O.2       6 UNK        -0.5248 
     44 N          27.6535    0.0442   -8.0876 N.am      7 UNK        -0.4718 
     45 CA         26.9813   -0.6954   -9.1675 C.3       7 UNK         0.0273 
     46 CB         26.6319   -2.1055   -8.6683 C.3       7 UNK        -0.1935 
     47 C          27.7594   -0.7799  -10.4960 C.2       7 UNK         0.5018 
     48 O          27.1327   -0.8365  -11.5545 O.2       7 UNK        -0.5186 
     49 N          29.0960   -0.7652  -10.4164 N.am      8 UNK        -0.4240 
     50 CA         30.0151   -0.7040  -11.5566 C.3       8 UNK         0.0235 
     51 CB         30.8282   -2.0099  -11.6258 C.3       8 UNK        -0.2000 
     52 C          30.9186    0.5420  -11.4822 C.2       8 UNK         0.4941 
     53 O          31.9905    0.5481  -12.0903 O.2       8 UNK        -0.5273 
     54 N          30.4805    1.5727  -10.7408 N.am      9 UNK        -0.4262 
     55 CA         31.1128    2.8763  -10.5010 C.3       9 UNK         0.0264 
     56 CB         31.2190    3.6973  -11.8015 C.3       9 UNK        -0.1955 
     57 C          32.4615    2.8222   -9.7613 C.2       9 UNK         0.5031 
     58 O          32.5729    3.3976   -8.6787 O.2       9 UNK        -0.5390 
     59 N          33.4586    2.1524  -10.3535 N.am      10 UNK        -0.4204 
     60 CA         34.8602    2.1220   -9.9164 C.3       10 UNK         0.0237 
     61 CB         35.6921    1.3283  -10.9367 C.3       10 UNK        -0.1985 
     62 C          35.0742    1.5672   -8.4980 C.2       10 UNK         0.4970 
     63 O          35.9383    2.0663   -7.7761 O.2       10 UNK        -0.4914 
     64 N          34.2763    0.5613   -8.1276 N.am      11 UNK        -0.4285 
     65 CA         34.2120   -0.0215   -6.7801 C.3       11 UNK         0.1007 
     66 C          33.4327    0.8314   -5.7356 C.2       11 UNK         0.5703 
     67 N          32.7736    1.9230   -6.1062 N.am      11 UNK        -0.7361 
     68 O          33.4291    0.4912   -4.5555 O.2       11 UNK        -0.4986 
     69 C69        33.7358   -1.5045   -6.8125 C.3       12 UNK        -0.0947 
     70 S70        32.3713   -1.8610   -7.9757 S.3       12 UNK        -0.2240 
     71 C71        30.9001   -1.3185   -7.0630 C.3       12 UNK         0.0194 
     72 H72        24.1993   -0.3025   -6.7840 H         1 UNK         0.0906 
     73 H73        23.3665   -1.1328   -8.0987 H         1 UNK         0.0906 
     74 H74        22.4362   -0.3796   -6.7991 H         1 UNK         0.0906 
     75 H75        25.0014   -1.6383   -5.1956 H         1 UNK         0.3140 
     76 H76        23.9342   -4.4062   -4.8518 H         1 UNK         0.1085 
     77 H77        26.1905   -4.7678   -3.6757 H         1 UNK         0.0836 
     78 H78        26.6601   -3.1628   -4.1845 H         1 UNK         0.0836 
     79 H79        28.6186   -5.8951   -6.4451 H         1 UNK         0.0731 
     80 H80        28.1417   -6.0415   -4.7717 H         1 UNK         0.0731 
     81 H81        29.3606   -3.5502   -7.2974 H         1 UNK         0.1312 
     82 H82        31.4994   -1.2245   -4.4051 H         1 UNK         0.1406 
     83 H83        29.1293   -4.5634   -3.1367 H         1 UNK         0.1631 
     84 H84        31.6815   -2.0829   -2.0909 H         1 UNK         0.0717 
     85 H85        30.7808   -3.4927   -1.5970 H         1 UNK         0.0717 
     86 H86        29.5858    0.8933   -1.6145 H         1 UNK         0.0934 
     87 H87        30.6863    0.0837   -2.6818 H         1 UNK         0.0934 
     88 H88        28.5103   -0.7791   -3.9331 H         1 UNK         0.0739 
     89 H89        27.2835    1.0254   -2.0338 H         1 UNK         0.3093 
     90 H90        25.1567    2.0338   -2.5881 H         1 UNK         0.0818 
     91 H91        23.9010    1.6828   -4.6958 H         1 UNK         0.0819 
     92 H92        23.3481    0.1128   -4.1399 H         1 UNK         0.0819 
     93 H93        22.8383    1.5738   -3.3020 H         1 UNK         0.0819 
     94 H94        23.9541   -0.5565   -1.8349 H         1 UNK         0.3041 
     95 H95        25.5215   -0.7056    1.2996 H         1 UNK         0.0784 
     96 H96        24.1078    1.2436    1.9352 H         1 UNK         0.0793 
     97 H97        22.7569    0.5934    1.0170 H         1 UNK         0.0793 
     98 H98        23.3562   -0.2600    2.4403 H         1 UNK         0.0793 
     99 H99        23.0101   -1.7093    0.1699 H         1 UNK         0.3024 
    100 H100       24.2329   -4.8741   -0.1921 H         1 UNK         0.1171 
    101 H101       21.8348   -4.7868   -0.7781 H         1 UNK         0.0786 
    102 H102       22.1350   -3.7975    0.6356 H         1 UNK         0.0786 
    103 H103       21.8781   -3.0385   -0.9341 H         1 UNK         0.0786 
    104 H104       24.5808   -5.0283   -2.3802 H         1 UNK         0.2977 
    105 H105       27.4870    0.6242   -5.6731 H         1 UNK         0.3127 
    106 H106       29.6945    2.0396   -7.0192 H         1 UNK         0.0770 
    107 H107       26.9832    3.3964   -6.5311 H         1 UNK         0.0814 
    108 H108       28.2831    4.0353   -7.5300 H         1 UNK         0.0814 
    109 H109       28.5134    3.8792   -5.7999 H         1 UNK         0.0814 
    110 H110       27.7558   -0.4499   -7.2139 H         1 UNK         0.2983 
    111 H111       26.0478   -0.1691   -9.3787 H         1 UNK         0.0947 
    112 H112       26.0350   -2.6443   -9.4053 H         1 UNK         0.0806 
    113 H113       26.0526   -2.0735   -7.7465 H         1 UNK         0.0806 
    114 H114       27.5248   -2.7004   -8.4786 H         1 UNK         0.0806 
    115 H115       29.5158   -0.7240   -9.5002 H         1 UNK         0.3000 
    116 H116       29.4537   -0.6096  -12.4884 H         1 UNK         0.0850 
    117 H117       31.4640   -2.0305  -12.5119 H         1 UNK         0.0810 
    118 H118       30.1745   -2.8805  -11.6796 H         1 UNK         0.0810 
    119 H119       31.4759   -2.1305  -10.7585 H         1 UNK         0.0810 
    120 H120       29.5655    1.4812  -10.3082 H         1 UNK         0.3040 
    121 H121       30.4253    3.4112   -9.8432 H         1 UNK         0.0766 
    122 H122       30.2394    3.8401  -12.2576 H         1 UNK         0.0812 
    123 H123       31.8638    3.2208  -12.5404 H         1 UNK         0.0812 
    124 H124       31.6304    4.6881  -11.6039 H         1 UNK         0.0812 
    125 H125       33.2186    1.6365  -11.1984 H         1 UNK         0.3205 
    126 H126       35.2180    3.1536   -9.9148 H         1 UNK         0.0754 
    127 H127       36.7442    1.3017  -10.6491 H         1 UNK         0.0769 
    128 H128       35.6402    1.7800  -11.9276 H         1 UNK         0.0769 
    129 H129       35.3494    0.2960  -11.0209 H         1 UNK         0.0769 
    130 H130       33.5971    0.2100   -8.7859 H         1 UNK         0.2981 
    131 H131       35.2336   -0.0416   -6.3957 H         1 UNK         0.0541 
    132 H132       32.8009    2.2738   -7.0569 H         1 UNK         0.3459 
    133 H133       32.2350    2.4136   -5.4081 H         1 UNK         0.3459 
    134 H134       33.4809   -1.8761   -5.8190 H         1 UNK         0.0612 
    135 H135       34.5734   -2.1246   -7.1347 H         1 UNK         0.0612 
    136 H136       31.0478   -0.3180   -6.6591 H         1 UNK         0.0624 
    137 H137       30.0848   -1.2285   -7.7779 H         1 UNK         0.0624 
@<TRIPOS>BOND
     1    1    2 1    
     2    1   72 1    
     3    1   73 1    
     4    1   74 1    
     5    2    3 2    
     6    2    4 am   BACKBONE|DICT|INTERRES
     7    4    5 1    
     8    4   75 1    
     9    5    6 1    
    10    5   35 1    
    11    5   76 1    
    12    6    7 1    
    13    6   77 1    
    14    6   78 1    
    15    7    8 1    
    16    8    9 1    
    17    8   79 1    
    18    8   80 1    
    19    9   10 ar   
    20    9   14 ar   
    21   10   11 ar   
    22   10   81 1    
    23   11   12 ar   
    24   11   71 1    
    25   12   13 ar   
    26   12   82 1    
    27   13   14 ar   
    28   13   15 1    
    29   14   83 1    
    30   15   16 1    
    31   15   84 1    
    32   15   85 1    
    33   16   17 1    
    34   17   18 1    
    35   17   86 1    
    36   17   87 1    
    37   18   19 1    
    38   18   37 1    
    39   18   88 1    
    40   19   20 am   BACKBONE|DICT|INTERRES
    41   19   89 1    
    42   20   21 2    
    43   20   22 1    
    44   22   23 1    
    45   22   24 1    
    46   22   90 1    
    47   23   91 1    
    48   23   92 1    
    49   23   93 1    
    50   24   25 am   BACKBONE|DICT|INTERRES
    51   24   94 1    
    52   25   26 2    
    53   25   27 1    
    54   27   28 1    
    55   27   29 1    
    56   27   95 1    
    57   28   96 1    
    58   28   97 1    
    59   28   98 1    
    60   29   30 am   BACKBONE|DICT|INTERRES
    61   29   99 1    
    62   30   31 2    
    63   30   32 1    
    64   32   33 1    
    65   32   34 1    
    66   32  100 1    
    67   33  101 1    
    68   33  102 1    
    69   33  103 1    
    70   34   35 am   BACKBONE|DICT|INTERRES
    71   34  104 1    
    72   35   36 2    
    73   37   38 2    
    74   37   39 am   BACKBONE|DICT|INTERRES
    75   39   40 1    
    76   39  105 1    
    77   40   41 1    
    78   40   42 1    
    79   40  106 1    
    80   41  107 1    
    81   41  108 1    
    82   41  109 1    
    83   42   43 2    
    84   42   44 am   BACKBONE|DICT|INTERRES
    85   44   45 1    
    86   44  110 1    
    87   45   46 1    
    88   45   47 1    
    89   45  111 1    
    90   46  112 1    
    91   46  113 1    
    92   46  114 1    
    93   47   48 2    
    94   47   49 am   BACKBONE|DICT|INTERRES
    95   49   50 1    
    96   49  115 1    
    97   50   51 1    
    98   50   52 1    
    99   50  116 1    
   100   51  117 1    
   101   51  118 1    
   102   51  119 1    
   103   52   53 2    
   104   52   54 am   BACKBONE|DICT|INTERRES
   105   54   55 1    
   106   54  120 1    
   107   55   56 1    
   108   55   57 1    
   109   55  121 1    
   110   56  122 1    
   111   56  123 1    
   112   56  124 1    
   113   57   58 2    
   114   57   59 am   BACKBONE|DICT|INTERRES
   115   59   60 1    
   116   59  125 1    
   117   60   61 1    
   118   60   62 1    
   119   60  126 1    
   120   61  127 1    
   121   61  128 1    
   122   61  129 1    
   123   62   63 2    
   124   62   64 am   BACKBONE|DICT|INTERRES
   125   64   65 1    
   126   64  130 1    
   127   65   66 1    
   128   65   69 1    
   129   65  131 1    
   130   66   67 am   BACKBONE|DICT|INTERRES
   131   66   68 2    
   132   67  132 1    
   133   67  133 1    
   134   69   70 1    
   135   69  134 1    
   136   69  135 1    
   137   70   71 1    
   138   71  136 1    
   139   71  137 1    
@<TRIPOS>SUBSTRUCTURE
     1 UNK         1 GROUP             0       ****    0 ROOT    
