@<TRIPOS>MOLECULE
3R137
137   139    1
SMALL
USER_CHARGES


@<TRIPOS>ATOM
      1 CA         30.2612    0.6538   -2.0464 C.3       0 UNK        -0.2020 
      2 C          29.5517   -0.6877   -2.1413 C.2       0 UNK         0.4855 
      3 O          29.0480   -1.0360   -3.2081 O.2       0 UNK        -0.5197 
      4 N          29.4997   -1.4450   -1.0364 N.am      1 UNK        -0.4892 
      5 CA         28.9035   -2.7847   -0.9686 C.3       1 UNK         0.0835 
      6 C6         29.5266   -3.6647    0.1487 C.3       12 UNK        -0.0855 
      7 S7         31.3278   -3.9067   -0.0206 S.3       12 UNK        -0.2931 
      8 C8         31.4162   -5.4298   -1.0219 C.3       12 UNK         0.0378 
      9 C9         31.1438   -5.1393   -2.4903 C.ar      12 UNK        -0.0802 
     10 C10        32.1192   -4.5012   -3.2591 C.ar      12 UNK        -0.0944 
     11 C11        31.8669   -4.1725   -4.5918 C.ar      12 UNK        -0.0787 
     12 C12        30.6368   -4.5057   -5.1636 C.ar      12 UNK        -0.0862 
     13 C13        29.6313   -5.1107   -4.3964 C.ar      12 UNK        -0.0733 
     14 C14        29.9110   -5.4584   -3.0694 C.ar      12 UNK        -0.0832 
     15 C15        28.2245   -5.3802   -4.9398 C.3       12 UNK         0.0240 
     16 S16        27.7273   -4.4143   -6.4129 S.3       12 UNK        -0.2522 
     17 C17        27.9197   -2.6879   -5.8515 C.3       12 UNK        -0.0967 
     18 CA         27.2374   -1.7035   -6.8303 C.3       5 UNK         0.0660 
     19 N          25.7816   -1.6697   -6.6591 N.am      5 UNK        -0.4015 
     20 C          24.9242   -1.0876   -7.5085 C.2       4 UNK         0.4946 
     21 O          25.2667   -0.5159   -8.5419 O.2       4 UNK        -0.5353 
     22 CA         23.4375   -1.1111   -7.1206 C.3       4 UNK         0.0277 
     23 CB         22.8328   -2.5060   -7.3487 C.3       4 UNK        -0.1981 
     24 N          23.2222   -0.6941   -5.7341 N.am      4 UNK        -0.4209 
     25 C          23.4384    0.5479   -5.2761 C.2       3 UNK         0.4942 
     26 O          23.7651    1.4962   -5.9897 O.2       3 UNK        -0.5208 
     27 CA         23.3038    0.7604   -3.7566 C.3       3 UNK         0.0250 
     28 CB         21.8540    1.1153   -3.3890 C.3       3 UNK        -0.1990 
     29 N          23.7525   -0.3793   -2.9440 N.am      3 UNK        -0.4232 
     30 C          24.9826   -0.9091   -2.9879 C.2       2 UNK         0.4993 
     31 O          25.8611   -0.5337   -3.7655 O.2       2 UNK        -0.5286 
     32 CA         25.2707   -2.0827   -2.0502 C.3       2 UNK         0.0209 
     33 CB         24.6858   -3.3913   -2.6136 C.3       2 UNK        -0.1931 
     34 N          26.7181   -2.2162   -1.9154 N.am      2 UNK        -0.4546 
     35 C          27.3645   -2.7215   -0.8630 C.2       1 UNK         0.5154 
     36 O          26.7926   -3.1220    0.1534 O.2       1 UNK        -0.5181 
     37 C          27.8622   -0.2982   -6.7455 C.2       5 UNK         0.5014 
     38 O          28.7256    0.0232   -7.5633 O.2       5 UNK        -0.5248 
     39 N          27.3850    0.5353   -5.8129 N.am      6 UNK        -0.4434 
     40 CA         27.7854    1.9353   -5.6581 C.3       6 UNK         0.0363 
     41 CB         27.1155    2.5165   -4.4038 C.3       6 UNK        -0.1936 
     42 C          27.4748    2.8074   -6.8900 C.2       6 UNK         0.5081 
     43 O          28.1850    3.7847   -7.1236 O.2       6 UNK        -0.5248 
     44 N          26.4391    2.4408   -7.6561 N.am      7 UNK        -0.4718 
     45 CA         26.0818    3.0797   -8.9198 C.3       7 UNK         0.0273 
     46 CB         24.5601    2.9901   -9.1257 C.3       7 UNK        -0.1935 
     47 C          26.8351    2.4569  -10.1063 C.2       7 UNK         0.5018 
     48 O          27.4343    3.1933  -10.8906 O.2       7 UNK        -0.5186 
     49 N          26.7592    1.1250  -10.2426 N.am      8 UNK        -0.4240 
     50 CA         27.2454    0.3853  -11.4095 C.3       8 UNK         0.0235 
     51 CB         26.5647   -0.9926  -11.4684 C.3       8 UNK        -0.2000 
     52 C          28.7718    0.2316  -11.4552 C.2       8 UNK         0.4941 
     53 O          29.3653    0.4683  -12.5086 O.2       8 UNK        -0.5273 
     54 N          29.3746   -0.1863  -10.3352 N.am      9 UNK        -0.4262 
     55 CA         30.8169   -0.4074  -10.2138 C.3       9 UNK         0.0264 
     56 CB         31.0878   -1.6342   -9.3228 C.3       9 UNK        -0.1955 
     57 C          31.5189    0.8350   -9.6539 C.2       9 UNK         0.5031 
     58 O          32.5919    1.1883  -10.1447 O.2       9 UNK        -0.5390 
     59 N          30.9048    1.4605   -8.6364 N.am      10 UNK        -0.4204 
     60 CA         31.3965    2.6238   -7.8845 C.3       10 UNK         0.0237 
     61 CB         31.3978    3.8879   -8.7698 C.3       10 UNK        -0.1985 
     62 C          32.7502    2.3626   -7.1921 C.2       10 UNK         0.4970 
     63 O          33.5960    3.2566   -7.1203 O.2       10 UNK        -0.4914 
     64 N          32.9278    1.1265   -6.7121 N.am      11 UNK        -0.4285 
     65 CA         34.1117    0.6394   -5.9970 C.3       11 UNK         0.1007 
     66 C          34.3160    1.2986   -4.6021 C.2       11 UNK         0.5703 
     67 N          35.5315    1.2542   -4.0726 N.am      11 UNK        -0.7361 
     68 O          33.3906    1.8270   -3.9877 O.2       11 UNK        -0.4986 
     69 C69        34.1114   -0.9123   -5.9312 C.3       12 UNK        -0.0947 
     70 S70        32.6112   -1.6077   -5.1615 S.3       12 UNK        -0.2240 
     71 C71        32.8962   -3.3880   -5.3862 C.3       12 UNK         0.0194 
     72 H72        29.5679    1.4623   -2.2752 H         1 UNK         0.0906 
     73 H73        30.6756    0.8286   -1.0539 H         1 UNK         0.0906 
     74 H74        31.0781    0.6926   -2.7672 H         1 UNK         0.0906 
     75 H75        29.9186   -1.1112   -0.1801 H         1 UNK         0.3140 
     76 H76        29.1087   -3.2731   -1.9195 H         1 UNK         0.1085 
     77 H77        29.3426   -3.2164    1.1269 H         1 UNK         0.0836 
     78 H78        29.0472   -4.6452    0.1770 H         1 UNK         0.0836 
     79 H79        32.4145   -5.8584   -0.9213 H         1 UNK         0.0731 
     80 H80        30.7245   -6.1779   -0.6315 H         1 UNK         0.0731 
     81 H81        33.0616   -4.2241   -2.8063 H         1 UNK         0.1312 
     82 H82        30.4550   -4.2406   -6.1951 H         1 UNK         0.1406 
     83 H83        29.1478   -5.9355   -2.4690 H         1 UNK         0.1631 
     84 H84        28.1466   -6.4404   -5.1836 H         1 UNK         0.0717 
     85 H85        27.4902   -5.1891   -4.1554 H         1 UNK         0.0717 
     86 H86        27.5191   -2.5804   -4.8424 H         1 UNK         0.0934 
     87 H87        28.9862   -2.4712   -5.7722 H         1 UNK         0.0934 
     88 H88        27.4312   -2.0492   -7.8485 H         1 UNK         0.0739 
     89 H89        25.4234   -2.0711   -5.8066 H         1 UNK         0.3093 
     90 H90        22.9158   -0.4046   -7.7702 H         1 UNK         0.0818 
     91 H91        21.7591   -2.5074   -7.1599 H         1 UNK         0.0819 
     92 H92        22.9781   -2.8281   -8.3809 H         1 UNK         0.0819 
     93 H93        23.2875   -3.2603   -6.7053 H         1 UNK         0.0819 
     94 H94        22.9400   -1.4046   -5.0752 H         1 UNK         0.3041 
     95 H95        23.9367    1.6107   -3.4946 H         1 UNK         0.0784 
     96 H96        21.5044    1.9730   -3.9657 H         1 UNK         0.0793 
     97 H97        21.1712    0.2884   -3.5886 H         1 UNK         0.0793 
     98 H98        21.7643    1.3793   -2.3350 H         1 UNK         0.0793 
     99 H99        23.0824   -0.7557   -2.2883 H         1 UNK         0.3024 
    100 H100       24.8300   -1.8633   -1.0749 H         1 UNK         0.1171 
    101 H101       24.8789   -4.2304   -1.9450 H         1 UNK         0.0786 
    102 H102       23.6043   -3.3220   -2.7361 H         1 UNK         0.0786 
    103 H103       25.1124   -3.6376   -3.5869 H         1 UNK         0.0786 
    104 H104       27.2639   -1.7877   -2.6617 H         1 UNK         0.2977 
    105 H105       26.7284    0.1685   -5.1223 H         1 UNK         0.3127 
    106 H106       28.8665    1.9492   -5.5062 H         1 UNK         0.0770 
    107 H107       26.0298    2.5334   -4.5029 H         1 UNK         0.0814 
    108 H108       27.4446    3.5406   -4.2237 H         1 UNK         0.0814 
    109 H109       27.3612    1.9330   -3.5162 H         1 UNK         0.0814 
    110 H110       25.8918    1.6362   -7.3782 H         1 UNK         0.2983 
    111 H111       26.3474    4.1386   -8.8768 H         1 UNK         0.0947 
    112 H112       24.2639    3.4613  -10.0638 H         1 UNK         0.0806 
    113 H113       24.0244    3.4980   -8.3234 H         1 UNK         0.0806 
    114 H114       24.2105    1.9574   -9.1528 H         1 UNK         0.0806 
    115 H115       26.2313    0.5871   -9.5550 H         1 UNK         0.3000 
    116 H116       26.9462    0.9385  -12.3028 H         1 UNK         0.0850 
    117 H117       26.8826   -1.5489  -12.3512 H         1 UNK         0.0810 
    118 H118       25.4799   -0.8961  -11.5189 H         1 UNK         0.0810 
    119 H119       26.8037   -1.6007  -10.5951 H         1 UNK         0.0810 
    120 H120       28.8291   -0.2846   -9.4847 H         1 UNK         0.3040 
    121 H121       31.2424   -0.6166  -11.1979 H         1 UNK         0.0766 
    122 H122       30.6183   -2.5294   -9.7304 H         1 UNK         0.0812 
    123 H123       30.7198   -1.4995   -8.3055 H         1 UNK         0.0812 
    124 H124       32.1581   -1.8334   -9.2533 H         1 UNK         0.0812 
    125 H125       30.0446    1.0408   -8.2840 H         1 UNK         0.3205 
    126 H126       30.6820    2.7889   -7.0782 H         1 UNK         0.0754 
    127 H127       31.6376    4.7757   -8.1837 H         1 UNK         0.0769 
    128 H128       30.4178    4.0535   -9.2185 H         1 UNK         0.0769 
    129 H129       32.1301    3.8196   -9.5748 H         1 UNK         0.0769 
    130 H130       32.1673    0.4676   -6.7812 H         1 UNK         0.2981 
    131 H131       34.9725    0.9347   -6.6003 H         1 UNK         0.0541 
    132 H132       35.6842    1.6675   -3.1661 H         1 UNK         0.3459 
    133 H133       36.2990    0.8192   -4.5602 H         1 UNK         0.3459 
    134 H134       34.1900   -1.3172   -6.9415 H         1 UNK         0.0612 
    135 H135       34.9877   -1.2792   -5.3940 H         1 UNK         0.0612 
    136 H136       33.9038   -3.6447   -5.0555 H         1 UNK         0.0624 
    137 H137       32.8372   -3.6376   -6.4467 H         1 UNK         0.0624 
@<TRIPOS>BOND
     1    1    2 1    
     2    1   72 1    
     3    1   73 1    
     4    1   74 1    
     5    2    3 2    
     6    2    4 am   BACKBONE|DICT|INTERRES
     7    4    5 1    
     8    4   75 1    
     9    5    6 1    
    10    5   35 1    
    11    5   76 1    
    12    6    7 1    
    13    6   77 1    
    14    6   78 1    
    15    7    8 1    
    16    8    9 1    
    17    8   79 1    
    18    8   80 1    
    19    9   10 ar   
    20    9   14 ar   
    21   10   11 ar   
    22   10   81 1    
    23   11   12 ar   
    24   11   71 1    
    25   12   13 ar   
    26   12   82 1    
    27   13   14 ar   
    28   13   15 1    
    29   14   83 1    
    30   15   16 1    
    31   15   84 1    
    32   15   85 1    
    33   16   17 1    
    34   17   18 1    
    35   17   86 1    
    36   17   87 1    
    37   18   19 1    
    38   18   37 1    
    39   18   88 1    
    40   19   20 am   BACKBONE|DICT|INTERRES
    41   19   89 1    
    42   20   21 2    
    43   20   22 1    
    44   22   23 1    
    45   22   24 1    
    46   22   90 1    
    47   23   91 1    
    48   23   92 1    
    49   23   93 1    
    50   24   25 am   BACKBONE|DICT|INTERRES
    51   24   94 1    
    52   25   26 2    
    53   25   27 1    
    54   27   28 1    
    55   27   29 1    
    56   27   95 1    
    57   28   96 1    
    58   28   97 1    
    59   28   98 1    
    60   29   30 am   BACKBONE|DICT|INTERRES
    61   29   99 1    
    62   30   31 2    
    63   30   32 1    
    64   32   33 1    
    65   32   34 1    
    66   32  100 1    
    67   33  101 1    
    68   33  102 1    
    69   33  103 1    
    70   34   35 am   BACKBONE|DICT|INTERRES
    71   34  104 1    
    72   35   36 2    
    73   37   38 2    
    74   37   39 am   BACKBONE|DICT|INTERRES
    75   39   40 1    
    76   39  105 1    
    77   40   41 1    
    78   40   42 1    
    79   40  106 1    
    80   41  107 1    
    81   41  108 1    
    82   41  109 1    
    83   42   43 2    
    84   42   44 am   BACKBONE|DICT|INTERRES
    85   44   45 1    
    86   44  110 1    
    87   45   46 1    
    88   45   47 1    
    89   45  111 1    
    90   46  112 1    
    91   46  113 1    
    92   46  114 1    
    93   47   48 2    
    94   47   49 am   BACKBONE|DICT|INTERRES
    95   49   50 1    
    96   49  115 1    
    97   50   51 1    
    98   50   52 1    
    99   50  116 1    
   100   51  117 1    
   101   51  118 1    
   102   51  119 1    
   103   52   53 2    
   104   52   54 am   BACKBONE|DICT|INTERRES
   105   54   55 1    
   106   54  120 1    
   107   55   56 1    
   108   55   57 1    
   109   55  121 1    
   110   56  122 1    
   111   56  123 1    
   112   56  124 1    
   113   57   58 2    
   114   57   59 am   BACKBONE|DICT|INTERRES
   115   59   60 1    
   116   59  125 1    
   117   60   61 1    
   118   60   62 1    
   119   60  126 1    
   120   61  127 1    
   121   61  128 1    
   122   61  129 1    
   123   62   63 2    
   124   62   64 am   BACKBONE|DICT|INTERRES
   125   64   65 1    
   126   64  130 1    
   127   65   66 1    
   128   65   69 1    
   129   65  131 1    
   130   66   67 am   BACKBONE|DICT|INTERRES
   131   66   68 2    
   132   67  132 1    
   133   67  133 1    
   134   69   70 1    
   135   69  134 1    
   136   69  135 1    
   137   70   71 1    
   138   71  136 1    
   139   71  137 1    
@<TRIPOS>SUBSTRUCTURE
     1 UNK         1 GROUP             0       ****    0 ROOT    
