@<TRIPOS>MOLECULE
3R137
137   139    1
SMALL
USER_CHARGES


@<TRIPOS>ATOM
      1 CA         24.6641   -6.0821   -0.5933 C.3       0 UNK        -0.2020 
      2 C          25.5858   -4.8934   -0.8202 C.2       0 UNK         0.4855 
      3 O          25.6075   -3.9707   -0.0061 O.2       0 UNK        -0.5197 
      4 N          26.3414   -4.9020   -1.9259 N.am      1 UNK        -0.4892 
      5 CA         27.3114   -3.8587   -2.2879 C.3       1 UNK         0.0835 
      6 C6         28.4476   -4.4113   -3.1884 C.3       12 UNK        -0.0855 
      7 S7         29.4557   -5.7123   -2.3947 S.3       12 UNK        -0.2931 
      8 C8         30.3814   -4.8101   -1.1014 C.3       12 UNK         0.0378 
      9 C9         31.0280   -3.5274   -1.6098 C.ar      12 UNK        -0.0802 
     10 C10        32.1721   -3.5748   -2.4085 C.ar      12 UNK        -0.0944 
     11 C11        32.7460   -2.3962   -2.8941 C.ar      12 UNK        -0.0787 
     12 C12        32.1659   -1.1634   -2.5733 C.ar      12 UNK        -0.0862 
     13 C13        31.0096   -1.0958   -1.7858 C.ar      12 UNK        -0.0733 
     14 C14        30.4670   -2.2888   -1.2885 C.ar      12 UNK        -0.0832 
     15 C15        30.3764    0.2755   -1.5157 C.3       12 UNK         0.0240 
     16 S16        28.6901    0.2170   -0.7891 S.3       12 UNK        -0.2522 
     17 C17        27.6024    1.3981   -1.6744 C.3       12 UNK        -0.0967 
     18 CA         28.0255    1.9219   -3.0703 C.3       5 UNK         0.0660 
     19 N          28.2482    0.8418   -4.0351 N.am      5 UNK        -0.4015 
     20 C          28.8934    0.9993   -5.1993 C.2       4 UNK         0.4946 
     21 O          29.2672    2.0893   -5.6294 O.2       4 UNK        -0.5353 
     22 CA         29.1868   -0.2638   -6.0160 C.3       4 UNK         0.0277 
     23 CB         30.2983   -1.0812   -5.3452 C.3       4 UNK        -0.1981 
     24 N          27.9940   -1.0923   -6.1516 N.am      4 UNK        -0.4209 
     25 C          27.2864   -1.2351   -7.2786 C.2       3 UNK         0.4942 
     26 O          27.6052   -0.7293   -8.3545 O.2       3 UNK        -0.5208 
     27 CA         26.0109   -2.0957   -7.2122 C.3       3 UNK         0.0250 
     28 CB         26.3118   -3.5114   -7.7293 C.3       3 UNK        -0.1990 
     29 N          25.4137   -2.1856   -5.8774 N.am      3 UNK        -0.4232 
     30 C          24.9979   -1.1498   -5.1337 C.2       2 UNK         0.4993 
     31 O          25.0224    0.0235   -5.5091 O.2       2 UNK        -0.5286 
     32 CA         24.5757   -1.4739   -3.6901 C.3       2 UNK         0.0209 
     33 CB         23.0709   -1.7747   -3.6228 C.3       2 UNK        -0.1931 
     34 N          25.3310   -2.5841   -3.0882 N.am      2 UNK        -0.4546 
     35 C          26.6653   -2.6154   -2.9390 C.2       1 UNK         0.5154 
     36 O          27.3959   -1.7087   -3.3413 O.2       1 UNK        -0.5181 
     37 C          27.0060    2.9695   -3.5637 C.2       5 UNK         0.5014 
     38 O          27.1717    4.1469   -3.2387 O.2       5 UNK        -0.5248 
     39 N          25.9699    2.5407   -4.3005 N.am      6 UNK        -0.4434 
     40 CA         24.8923    3.4110   -4.7752 C.3       6 UNK         0.0363 
     41 CB         23.5293    2.8468   -4.3351 C.3       6 UNK        -0.1936 
     42 C          24.9519    3.5886   -6.2961 C.2       6 UNK         0.5081 
     43 O          24.9540    4.7265   -6.7665 O.2       6 UNK        -0.5248 
     44 N          24.9833    2.4756   -7.0429 N.am      7 UNK        -0.4718 
     45 CA         24.9253    2.4923   -8.5094 C.3       7 UNK         0.0273 
     46 CB         24.4419    1.1283   -9.0227 C.3       7 UNK        -0.1935 
     47 C          26.2579    2.8699   -9.1775 C.2       7 UNK         0.5018 
     48 O          26.2333    3.4068  -10.2856 O.2       7 UNK        -0.5186 
     49 N          27.3821    2.5684   -8.5081 N.am      8 UNK        -0.4240 
     50 CA         28.7667    2.7695   -8.9632 C.3       8 UNK         0.0235 
     51 CB         29.1083    4.2738   -9.0140 C.3       8 UNK        -0.2000 
     52 C          29.1060    2.0300  -10.2756 C.2       8 UNK         0.4941 
     53 O          29.9200    2.5161  -11.0634 O.2       8 UNK        -0.5273 
     54 N          28.4768    0.8673  -10.4850 N.am      9 UNK        -0.4262 
     55 CA         28.7188   -0.0294  -11.6131 C.3       9 UNK         0.0264 
     56 CB         27.4158   -0.7679  -11.9624 C.3       9 UNK        -0.1955 
     57 C          29.8385   -1.0262  -11.2827 C.2       9 UNK         0.5031 
     58 O          30.6994   -1.2736  -12.1288 O.2       9 UNK        -0.5390 
     59 N          29.8119   -1.5689  -10.0588 N.am      10 UNK        -0.4204 
     60 CA         30.8557   -2.4305   -9.5062 C.3       10 UNK         0.0237 
     61 CB         30.2078   -3.4441   -8.5472 C.3       10 UNK        -0.1985 
     62 C          31.9268   -1.5900   -8.7913 C.2       10 UNK         0.4970 
     63 O          31.6695   -0.4386   -8.4332 O.2       10 UNK        -0.4914 
     64 N          33.1048   -2.1945   -8.5900 N.am      11 UNK        -0.4285 
     65 CA         34.2752   -1.6134   -7.9016 C.3       11 UNK         0.1007 
     66 C          34.9225   -0.3888   -8.6220 C.2       11 UNK         0.5703 
     67 N          34.6490   -0.1521   -9.8998 N.am      11 UNK        -0.7361 
     68 O          35.7176    0.3383   -8.0306 O.2       11 UNK        -0.4986 
     69 C69        34.0278   -1.3616   -6.3835 C.3       12 UNK        -0.0947 
     70 S70        33.5690   -2.8867   -5.4911 S.3       12 UNK        -0.2240 
     71 C71        33.9895   -2.4664   -3.7682 C.3       12 UNK         0.0194 
     72 H72        23.6279   -5.7493   -0.5386 H         1 UNK         0.0906 
     73 H73        24.7424   -6.8185   -1.3929 H         1 UNK         0.0906 
     74 H74        24.9134   -6.5749    0.3461 H         1 UNK         0.0906 
     75 H75        26.2961   -5.6928   -2.5539 H         1 UNK         0.3140 
     76 H76        27.7640   -3.4907   -1.3668 H         1 UNK         0.1085 
     77 H77        29.1231   -3.6190   -3.5144 H         1 UNK         0.0836 
     78 H78        28.0291   -4.8264   -4.1071 H         1 UNK         0.0836 
     79 H79        31.1532   -5.4680   -0.6994 H         1 UNK         0.0731 
     80 H80        29.7081   -4.5973   -0.2696 H         1 UNK         0.0731 
     81 H81        32.6075   -4.5311   -2.6651 H         1 UNK         0.1312 
     82 H82        32.6037   -0.2531   -2.9599 H         1 UNK         0.1406 
     83 H83        29.5901   -2.2686   -0.6600 H         1 UNK         0.1631 
     84 H84        30.3878    0.8425   -2.4425 H         1 UNK         0.0717 
     85 H85        31.0199    0.8213   -0.8247 H         1 UNK         0.0717 
     86 H86        26.6229    0.9206   -1.7453 H         1 UNK         0.0934 
     87 H87        27.4619    2.2432   -0.9969 H         1 UNK         0.0934 
     88 H88        28.9671    2.4617   -2.9538 H         1 UNK         0.0739 
     89 H89        27.9819   -0.0943   -3.7305 H         1 UNK         0.3093 
     90 H90        29.5460    0.0557   -6.9955 H         1 UNK         0.0818 
     91 H91        29.9758   -1.4995   -4.3926 H         1 UNK         0.0819 
     92 H92        30.6282   -1.9076   -5.9712 H         1 UNK         0.0819 
     93 H93        31.1720   -0.4587   -5.1546 H         1 UNK         0.0819 
     94 H94        27.6469   -1.5183   -5.2993 H         1 UNK         0.3041 
     95 H95        25.2678   -1.6457   -7.8704 H         1 UNK         0.0784 
     96 H96        26.7303   -3.4781   -8.7366 H         1 UNK         0.0793 
     97 H97        27.0325   -4.0295   -7.0951 H         1 UNK         0.0793 
     98 H98        25.4075   -4.1182   -7.7778 H         1 UNK         0.0793 
     99 H99        25.3536   -3.1077   -5.4712 H         1 UNK         0.3024 
    100 H100       24.7734   -0.5817   -3.0920 H         1 UNK         0.1171 
    101 H101       22.7383   -1.9058   -2.5929 H         1 UNK         0.0786 
    102 H102       22.4900   -0.9538   -4.0463 H         1 UNK         0.0786 
    103 H103       22.8125   -2.6777   -4.1775 H         1 UNK         0.0786 
    104 H104       24.7992   -3.3644   -2.7303 H         1 UNK         0.2977 
    105 H105       25.9082    1.5641   -4.5691 H         1 UNK         0.3127 
    106 H106       24.9812    4.4062   -4.3342 H         1 UNK         0.0770 
    107 H107       23.3343    1.8583   -4.7503 H         1 UNK         0.0814 
    108 H108       22.7175    3.4990   -4.6597 H         1 UNK         0.0814 
    109 H109       23.4671    2.7698   -3.2496 H         1 UNK         0.0814 
    110 H110       24.9618    1.5687   -6.5807 H         1 UNK         0.2983 
    111 H111       24.1872    3.2393   -8.8114 H         1 UNK         0.0947 
    112 H112       24.2432    1.1669  -10.0946 H         1 UNK         0.0806 
    113 H113       23.5207    0.8149   -8.5312 H         1 UNK         0.0806 
    114 H114       25.1918    0.3567   -8.8657 H         1 UNK         0.0806 
    115 H115       27.2792    2.1301   -7.6039 H         1 UNK         0.3000 
    116 H116       29.4078    2.3160   -8.2076 H         1 UNK         0.0850 
    117 H117       30.1684    4.4285   -9.2181 H         1 UNK         0.0810 
    118 H118       28.8892    4.7601   -8.0634 H         1 UNK         0.0810 
    119 H119       28.5476    4.7900   -9.7938 H         1 UNK         0.0810 
    120 H120       27.8881    0.5028   -9.7403 H         1 UNK         0.3040 
    121 H121       29.0251    0.5528  -12.4850 H         1 UNK         0.0766 
    122 H122       26.6285   -0.0672  -12.2413 H         1 UNK         0.0812 
    123 H123       27.0493   -1.3655  -11.1264 H         1 UNK         0.0812 
    124 H124       27.5645   -1.4423  -12.8067 H         1 UNK         0.0812 
    125 H125       29.0879   -1.2632   -9.4140 H         1 UNK         0.3205 
    126 H126       31.3385   -2.9839  -10.3146 H         1 UNK         0.0754 
    127 H127       30.9566   -4.0831   -8.0774 H         1 UNK         0.0769 
    128 H128       29.5135   -4.0964   -9.0772 H         1 UNK         0.0769 
    129 H129       29.6526   -2.9529   -7.7502 H         1 UNK         0.0769 
    130 H130       33.2291   -3.1391   -8.9238 H         1 UNK         0.2981 
    131 H131       35.0452   -2.3829   -7.9669 H         1 UNK         0.0541 
    132 H132       34.0039   -0.7394  -10.4030 H         1 UNK         0.3459 
    133 H133       35.0821    0.6334  -10.3589 H         1 UNK         0.3459 
    134 H134       33.2534   -0.6094   -6.2332 H         1 UNK         0.0612 
    135 H135       34.9325   -0.9659   -5.9196 H         1 UNK         0.0612 
    136 H136       34.5393   -1.5256   -3.7215 H         1 UNK         0.0624 
    137 H137       34.6653   -3.2292   -3.3789 H         1 UNK         0.0624 
@<TRIPOS>BOND
     1    1    2 1    
     2    1   72 1    
     3    1   73 1    
     4    1   74 1    
     5    2    3 2    
     6    2    4 am   BACKBONE|DICT|INTERRES
     7    4    5 1    
     8    4   75 1    
     9    5    6 1    
    10    5   35 1    
    11    5   76 1    
    12    6    7 1    
    13    6   77 1    
    14    6   78 1    
    15    7    8 1    
    16    8    9 1    
    17    8   79 1    
    18    8   80 1    
    19    9   10 ar   
    20    9   14 ar   
    21   10   11 ar   
    22   10   81 1    
    23   11   12 ar   
    24   11   71 1    
    25   12   13 ar   
    26   12   82 1    
    27   13   14 ar   
    28   13   15 1    
    29   14   83 1    
    30   15   16 1    
    31   15   84 1    
    32   15   85 1    
    33   16   17 1    
    34   17   18 1    
    35   17   86 1    
    36   17   87 1    
    37   18   19 1    
    38   18   37 1    
    39   18   88 1    
    40   19   20 am   BACKBONE|DICT|INTERRES
    41   19   89 1    
    42   20   21 2    
    43   20   22 1    
    44   22   23 1    
    45   22   24 1    
    46   22   90 1    
    47   23   91 1    
    48   23   92 1    
    49   23   93 1    
    50   24   25 am   BACKBONE|DICT|INTERRES
    51   24   94 1    
    52   25   26 2    
    53   25   27 1    
    54   27   28 1    
    55   27   29 1    
    56   27   95 1    
    57   28   96 1    
    58   28   97 1    
    59   28   98 1    
    60   29   30 am   BACKBONE|DICT|INTERRES
    61   29   99 1    
    62   30   31 2    
    63   30   32 1    
    64   32   33 1    
    65   32   34 1    
    66   32  100 1    
    67   33  101 1    
    68   33  102 1    
    69   33  103 1    
    70   34   35 am   BACKBONE|DICT|INTERRES
    71   34  104 1    
    72   35   36 2    
    73   37   38 2    
    74   37   39 am   BACKBONE|DICT|INTERRES
    75   39   40 1    
    76   39  105 1    
    77   40   41 1    
    78   40   42 1    
    79   40  106 1    
    80   41  107 1    
    81   41  108 1    
    82   41  109 1    
    83   42   43 2    
    84   42   44 am   BACKBONE|DICT|INTERRES
    85   44   45 1    
    86   44  110 1    
    87   45   46 1    
    88   45   47 1    
    89   45  111 1    
    90   46  112 1    
    91   46  113 1    
    92   46  114 1    
    93   47   48 2    
    94   47   49 am   BACKBONE|DICT|INTERRES
    95   49   50 1    
    96   49  115 1    
    97   50   51 1    
    98   50   52 1    
    99   50  116 1    
   100   51  117 1    
   101   51  118 1    
   102   51  119 1    
   103   52   53 2    
   104   52   54 am   BACKBONE|DICT|INTERRES
   105   54   55 1    
   106   54  120 1    
   107   55   56 1    
   108   55   57 1    
   109   55  121 1    
   110   56  122 1    
   111   56  123 1    
   112   56  124 1    
   113   57   58 2    
   114   57   59 am   BACKBONE|DICT|INTERRES
   115   59   60 1    
   116   59  125 1    
   117   60   61 1    
   118   60   62 1    
   119   60  126 1    
   120   61  127 1    
   121   61  128 1    
   122   61  129 1    
   123   62   63 2    
   124   62   64 am   BACKBONE|DICT|INTERRES
   125   64   65 1    
   126   64  130 1    
   127   65   66 1    
   128   65   69 1    
   129   65  131 1    
   130   66   67 am   BACKBONE|DICT|INTERRES
   131   66   68 2    
   132   67  132 1    
   133   67  133 1    
   134   69   70 1    
   135   69  134 1    
   136   69  135 1    
   137   70   71 1    
   138   71  136 1    
   139   71  137 1    
@<TRIPOS>SUBSTRUCTURE
     1 UNK         1 GROUP             0       ****    0 ROOT    
