@<TRIPOS>MOLECULE
3R137
137   139    1
SMALL
USER_CHARGES


@<TRIPOS>ATOM
      1 CA         27.6871   -2.7967   -6.2431 C.3       0 UNK        -0.2020 
      2 C          28.1988   -3.7110   -5.1416 C.2       0 UNK         0.4855 
      3 O          28.8542   -4.7154   -5.4214 O.2       0 UNK        -0.5197 
      4 N          27.8848   -3.3659   -3.8913 N.am      1 UNK        -0.4892 
      5 CA         28.0927   -4.1923   -2.7012 C.3       1 UNK         0.0835 
      6 C6         28.4381   -3.3047   -1.4774 C.3       12 UNK        -0.0855 
      7 S7         30.1091   -2.5912   -1.6189 S.3       12 UNK        -0.2931 
      8 C8         29.8637   -0.9095   -0.9605 C.3       12 UNK         0.0378 
      9 C9         29.4405    0.0976   -2.0237 C.ar      12 UNK        -0.0802 
     10 C10        30.2580    0.3265   -3.1356 C.ar      12 UNK        -0.0944 
     11 C11        29.9296    1.3132   -4.0683 C.ar      12 UNK        -0.0787 
     12 C12        28.7754    2.0789   -3.8851 C.ar      12 UNK        -0.0862 
     13 C13        27.9516    1.8663   -2.7764 C.ar      12 UNK        -0.0733 
     14 C14        28.2817    0.8650   -1.8554 C.ar      12 UNK        -0.0832 
     15 C15        26.7467    2.7669   -2.5388 C.3       12 UNK         0.0240 
     16 S16        25.1713    1.9616   -2.9567 S.3       12 UNK        -0.2522 
     17 C17        25.2655    1.8245   -4.7759 C.3       12 UNK        -0.0967 
     18 CA         25.5508    0.3765   -5.2527 C.3       5 UNK         0.0660 
     19 N          24.5266   -0.5642   -4.7950 N.am      5 UNK        -0.4015 
     20 C          24.6877   -1.4865   -3.8437 C.2       4 UNK         0.4946 
     21 O          25.7399   -1.6517   -3.2208 O.2       4 UNK        -0.5353 
     22 CA         23.4696   -2.3812   -3.5627 C.3       4 UNK         0.0277 
     23 CB         23.2474   -3.3788   -4.7136 C.3       4 UNK        -0.1981 
     24 N          23.6825   -3.1244   -2.3195 N.am      4 UNK        -0.4209 
     25 C          23.0772   -2.8633   -1.1527 C.2       3 UNK         0.4942 
     26 O          22.1612   -2.0464   -1.0380 O.2       3 UNK        -0.5208 
     27 CA         23.5868   -3.5799    0.1184 C.3       3 UNK         0.0250 
     28 CB         22.4324   -4.0756    1.0169 C.3       3 UNK        -0.1990 
     29 N          24.5824   -4.6351   -0.1178 N.am      3 UNK        -0.4232 
     30 C          24.4004   -5.8402   -0.6805 C.2       2 UNK         0.4993 
     31 O          23.3063   -6.2787   -1.0391 O.2       2 UNK        -0.5286 
     32 CA         25.6860   -6.6675   -0.9167 C.3       2 UNK         0.0209 
     33 CB         25.4588   -7.8647   -1.8651 C.3       2 UNK        -0.1931 
     34 N          26.8219   -5.8506   -1.3855 N.am      2 UNK        -0.4546 
     35 C          26.8213   -5.0343   -2.4526 C.2       1 UNK         0.5154 
     36 O          25.8450   -4.9143   -3.1960 O.2       1 UNK        -0.5181 
     37 C          25.5923    0.3005   -6.7890 C.2       5 UNK         0.5014 
     38 O          24.6123   -0.1308   -7.4048 O.2       5 UNK        -0.5248 
     39 N          26.7100    0.7285   -7.3839 N.am      6 UNK        -0.4434 
     40 CA         26.9229    0.7760   -8.8300 C.3       6 UNK         0.0363 
     41 CB         27.6711   -0.4930   -9.2875 C.3       6 UNK        -0.1936 
     42 C          27.6679    2.0676   -9.1998 C.2       6 UNK         0.5081 
     43 O          27.8861    2.9282   -8.3421 O.2       6 UNK        -0.5248 
     44 N          28.0247    2.1940  -10.4828 N.am      7 UNK        -0.4718 
     45 CA         28.7001    3.3500  -11.0737 C.3       7 UNK         0.0273 
     46 CB         28.5294    3.2865  -12.6034 C.3       7 UNK        -0.1935 
     47 C          30.1810    3.4615  -10.6585 C.2       7 UNK         0.5018 
     48 O          31.0641    3.1985  -11.4779 O.2       7 UNK        -0.5186 
     49 N          30.4145    3.8577   -9.3988 N.am      8 UNK        -0.4240 
     50 CA         31.6929    4.2406   -8.7822 C.3       8 UNK         0.0235 
     51 CB         32.1151    5.6439   -9.2699 C.3       8 UNK        -0.2000 
     52 C          32.8005    3.1866   -8.9587 C.2       8 UNK         0.4941 
     53 O          32.8857    2.2600   -8.1552 O.2       8 UNK        -0.5273 
     54 N          33.6061    3.3195  -10.0228 N.am      9 UNK        -0.4262 
     55 CA         34.6498    2.3726  -10.4293 C.3       9 UNK         0.0264 
     56 CB         35.3746    2.9195  -11.6694 C.3       9 UNK        -0.1955 
     57 C          34.1334    0.9449  -10.6929 C.2       9 UNK         0.5031 
     58 O          34.8991   -0.0053  -10.5274 O.2       9 UNK        -0.5390 
     59 N          32.8441    0.8091  -11.0405 N.am      10 UNK        -0.4204 
     60 CA         32.1351   -0.4686  -11.1716 C.3       10 UNK         0.0237 
     61 CB         30.7395   -0.2069  -11.7602 C.3       10 UNK        -0.1985 
     62 C          32.0150   -1.2695   -9.8571 C.2       10 UNK         0.4970 
     63 O          31.7698   -2.4747   -9.9212 O.2       10 UNK        -0.4914 
     64 N          32.1841   -0.6056   -8.7077 N.am      11 UNK        -0.4285 
     65 CA         32.1364   -1.1836   -7.3568 C.3       11 UNK         0.1007 
     66 C          33.3976   -0.8524   -6.5080 C.2       11 UNK         0.5703 
     67 N          34.4919   -0.3901   -7.1028 N.am      11 UNK        -0.7361 
     68 O          33.4057   -1.0536   -5.2960 O.2       11 UNK        -0.4986 
     69 C69        30.7877   -0.8862   -6.6403 C.3       12 UNK        -0.0947 
     70 S70        30.2120    0.8413   -6.7743 S.3       12 UNK        -0.2240 
     71 C71        30.8437    1.5919   -5.2492 C.3       12 UNK         0.0194 
     72 H72        26.6103   -2.9155   -6.3632 H         1 UNK         0.0906 
     73 H73        27.8953   -1.7540   -6.0053 H         1 UNK         0.0906 
     74 H74        28.1628   -3.0329   -7.1946 H         1 UNK         0.0906 
     75 H75        27.2513   -2.5829   -3.7341 H         1 UNK         0.3140 
     76 H76        28.9113   -4.8947   -2.8737 H         1 UNK         0.1085 
     77 H77        28.4203   -3.8716   -0.5455 H         1 UNK         0.0836 
     78 H78        27.6999   -2.5075   -1.3644 H         1 UNK         0.0836 
     79 H79        30.8067   -0.5710   -0.5290 H         1 UNK         0.0731 
     80 H80        29.1500   -0.9397   -0.1356 H         1 UNK         0.0731 
     81 H81        31.1633   -0.2521   -3.2631 H         1 UNK         0.1312 
     82 H82        28.5350    2.8578   -4.5959 H         1 UNK         0.1406 
     83 H83        27.6507    0.7096   -0.9908 H         1 UNK         0.1631 
     84 H84        26.8382    3.6967   -3.1026 H         1 UNK         0.0717 
     85 H85        26.7194    3.0565   -1.4873 H         1 UNK         0.0717 
     86 H86        24.3165    2.1794   -5.1830 H         1 UNK         0.0934 
     87 H87        26.0256    2.5126   -5.1500 H         1 UNK         0.0934 
     88 H88        26.5321    0.0710   -4.8823 H         1 UNK         0.0739 
     89 H89        23.6722   -0.5454   -5.3352 H         1 UNK         0.3093 
     90 H90        22.5884   -1.7415   -3.4808 H         1 UNK         0.0818 
     91 H91        24.1377   -3.9754   -4.9138 H         1 UNK         0.0819 
     92 H92        22.4304   -4.0649   -4.4896 H         1 UNK         0.0819 
     93 H93        22.9902   -2.8629   -5.6394 H         1 UNK         0.0819 
     94 H94        24.4546   -3.7835   -2.3494 H         1 UNK         0.3041 
     95 H95        24.1177   -2.8109    0.6816 H         1 UNK         0.0784 
     96 H96        21.8042   -3.2447    1.3402 H         1 UNK         0.0793 
     97 H97        21.7856   -4.7822    0.4964 H         1 UNK         0.0793 
     98 H98        22.8088   -4.5626    1.9164 H         1 UNK         0.0793 
     99 H99        25.5302   -4.3851    0.1278 H         1 UNK         0.3024 
    100 H100       25.9667   -7.0694    0.0586 H         1 UNK         0.1171 
    101 H101       26.3705   -8.4481   -1.9933 H         1 UNK         0.0786 
    102 H102       24.6977   -8.5389   -1.4702 H         1 UNK         0.0786 
    103 H103       25.1260   -7.5415   -2.8522 H         1 UNK         0.0786 
    104 H104       27.6604   -5.9073   -0.8229 H         1 UNK         0.2977 
    105 H105       27.4514    1.1501   -6.8380 H         1 UNK         0.3127 
    106 H106       25.9588    0.8184   -9.3415 H         1 UNK         0.0770 
    107 H107       28.6922   -0.5228   -8.9088 H         1 UNK         0.0814 
    108 H108       27.7256   -0.5553  -10.3744 H         1 UNK         0.0814 
    109 H109       27.1621   -1.3947   -8.9474 H         1 UNK         0.0814 
    110 H110       27.8103    1.4372  -11.1157 H         1 UNK         0.2983 
    111 H111       28.1992    4.2562  -10.7251 H         1 UNK         0.0947 
    112 H112       29.0080    4.1404  -13.0851 H         1 UNK         0.0806 
    113 H113       27.4771    3.3058  -12.8876 H         1 UNK         0.0806 
    114 H114       28.9751    2.3842  -13.0244 H         1 UNK         0.0806 
    115 H115       29.6039    3.8944   -8.7871 H         1 UNK         0.3000 
    116 H116       31.5081    4.3071   -7.7087 H         1 UNK         0.0850 
    117 H117       33.0760    5.9370   -8.8444 H         1 UNK         0.0810 
    118 H118       31.3883    6.3963   -8.9632 H         1 UNK         0.0810 
    119 H119       32.2017    5.6989  -10.3556 H         1 UNK         0.0810 
    120 H120       33.4206    4.0845  -10.6556 H         1 UNK         0.3040 
    121 H121       35.3686    2.3100   -9.6097 H         1 UNK         0.0766 
    122 H122       36.1752    2.2473  -11.9817 H         1 UNK         0.0812 
    123 H123       35.8292    3.8899  -11.4689 H         1 UNK         0.0812 
    124 H124       34.6956    3.0333  -12.5156 H         1 UNK         0.0812 
    125 H125       32.2916    1.6536  -11.1684 H         1 UNK         0.3205 
    126 H126       32.6958   -1.0856  -11.8768 H         1 UNK         0.0754 
    127 H127       30.1314    0.3940  -11.0847 H         1 UNK         0.0769 
    128 H128       30.2056   -1.1420  -11.9354 H         1 UNK         0.0769 
    129 H129       30.7998    0.3167  -12.7145 H         1 UNK         0.0769 
    130 H130       32.3820    0.3906   -8.7233 H         1 UNK         0.2981 
    131 H131       32.1951   -2.2692   -7.4494 H         1 UNK         0.0541 
    132 H132       34.5149   -0.2499   -8.1014 H         1 UNK         0.3459 
    133 H133       35.3057   -0.1878   -6.5448 H         1 UNK         0.3459 
    134 H134       30.8013   -1.1993   -5.5954 H         1 UNK         0.0612 
    135 H135       30.0223   -1.4996   -7.1118 H         1 UNK         0.0612 
    136 H136       30.9202    2.6693   -5.4025 H         1 UNK         0.0624 
    137 H137       31.8579    1.2437   -5.0527 H         1 UNK         0.0624 
@<TRIPOS>BOND
     1    1    2 1    
     2    1   72 1    
     3    1   73 1    
     4    1   74 1    
     5    2    3 2    
     6    2    4 am   BACKBONE|DICT|INTERRES
     7    4    5 1    
     8    4   75 1    
     9    5    6 1    
    10    5   35 1    
    11    5   76 1    
    12    6    7 1    
    13    6   77 1    
    14    6   78 1    
    15    7    8 1    
    16    8    9 1    
    17    8   79 1    
    18    8   80 1    
    19    9   10 ar   
    20    9   14 ar   
    21   10   11 ar   
    22   10   81 1    
    23   11   12 ar   
    24   11   71 1    
    25   12   13 ar   
    26   12   82 1    
    27   13   14 ar   
    28   13   15 1    
    29   14   83 1    
    30   15   16 1    
    31   15   84 1    
    32   15   85 1    
    33   16   17 1    
    34   17   18 1    
    35   17   86 1    
    36   17   87 1    
    37   18   19 1    
    38   18   37 1    
    39   18   88 1    
    40   19   20 am   BACKBONE|DICT|INTERRES
    41   19   89 1    
    42   20   21 2    
    43   20   22 1    
    44   22   23 1    
    45   22   24 1    
    46   22   90 1    
    47   23   91 1    
    48   23   92 1    
    49   23   93 1    
    50   24   25 am   BACKBONE|DICT|INTERRES
    51   24   94 1    
    52   25   26 2    
    53   25   27 1    
    54   27   28 1    
    55   27   29 1    
    56   27   95 1    
    57   28   96 1    
    58   28   97 1    
    59   28   98 1    
    60   29   30 am   BACKBONE|DICT|INTERRES
    61   29   99 1    
    62   30   31 2    
    63   30   32 1    
    64   32   33 1    
    65   32   34 1    
    66   32  100 1    
    67   33  101 1    
    68   33  102 1    
    69   33  103 1    
    70   34   35 am   BACKBONE|DICT|INTERRES
    71   34  104 1    
    72   35   36 2    
    73   37   38 2    
    74   37   39 am   BACKBONE|DICT|INTERRES
    75   39   40 1    
    76   39  105 1    
    77   40   41 1    
    78   40   42 1    
    79   40  106 1    
    80   41  107 1    
    81   41  108 1    
    82   41  109 1    
    83   42   43 2    
    84   42   44 am   BACKBONE|DICT|INTERRES
    85   44   45 1    
    86   44  110 1    
    87   45   46 1    
    88   45   47 1    
    89   45  111 1    
    90   46  112 1    
    91   46  113 1    
    92   46  114 1    
    93   47   48 2    
    94   47   49 am   BACKBONE|DICT|INTERRES
    95   49   50 1    
    96   49  115 1    
    97   50   51 1    
    98   50   52 1    
    99   50  116 1    
   100   51  117 1    
   101   51  118 1    
   102   51  119 1    
   103   52   53 2    
   104   52   54 am   BACKBONE|DICT|INTERRES
   105   54   55 1    
   106   54  120 1    
   107   55   56 1    
   108   55   57 1    
   109   55  121 1    
   110   56  122 1    
   111   56  123 1    
   112   56  124 1    
   113   57   58 2    
   114   57   59 am   BACKBONE|DICT|INTERRES
   115   59   60 1    
   116   59  125 1    
   117   60   61 1    
   118   60   62 1    
   119   60  126 1    
   120   61  127 1    
   121   61  128 1    
   122   61  129 1    
   123   62   63 2    
   124   62   64 am   BACKBONE|DICT|INTERRES
   125   64   65 1    
   126   64  130 1    
   127   65   66 1    
   128   65   69 1    
   129   65  131 1    
   130   66   67 am   BACKBONE|DICT|INTERRES
   131   66   68 2    
   132   67  132 1    
   133   67  133 1    
   134   69   70 1    
   135   69  134 1    
   136   69  135 1    
   137   70   71 1    
   138   71  136 1    
   139   71  137 1    
@<TRIPOS>SUBSTRUCTURE
     1 UNK         1 GROUP             0       ****    0 ROOT    
