@<TRIPOS>MOLECULE
3R137
137   139    1
SMALL
USER_CHARGES


@<TRIPOS>ATOM
      1 CA         27.0143   -5.4925    1.0467 C.3       0 UNK        -0.2020 
      2 C          27.2270   -4.3228    0.0984 C.2       0 UNK         0.4855 
      3 O          27.1443   -4.5031   -1.1159 O.2       0 UNK        -0.5197 
      4 N          27.4922   -3.1284    0.6465 N.am      1 UNK        -0.4892 
      5 CA         27.7667   -1.8488   -0.0326 C.3       1 UNK         0.0835 
      6 C6         29.0025   -1.8818   -0.9709 C.3       12 UNK        -0.0855 
      7 S7         30.5592   -2.1663   -0.0542 S.3       12 UNK        -0.2931 
      8 C8         30.9877   -3.8906   -0.4751 C.3       12 UNK         0.0378 
      9 C9         31.2144   -4.0833   -1.9681 C.ar      12 UNK        -0.0802 
     10 C10        32.2621   -3.4181   -2.6151 C.ar      12 UNK        -0.0944 
     11 C11        32.4188   -3.5280   -3.9997 C.ar      12 UNK        -0.0787 
     12 C12        31.5604   -4.3515   -4.7289 C.ar      12 UNK        -0.0862 
     13 C13        30.4860   -4.9827   -4.0991 C.ar      12 UNK        -0.0733 
     14 C14        30.3331   -4.8728   -2.7145 C.ar      12 UNK        -0.0832 
     15 C15        29.4047   -5.6325   -4.9469 C.3       12 UNK         0.0240 
     16 S16        27.8776   -4.6217   -5.0141 S.3       12 UNK        -0.2522 
     17 C17        28.4502   -2.8779   -5.0347 C.3       12 UNK        -0.0967 
     18 CA         28.1130   -2.1276   -6.3435 C.3       5 UNK         0.0660 
     19 N          26.6738   -2.0211   -6.5387 N.am      5 UNK        -0.4015 
     20 C          26.0739   -1.8814   -7.7235 C.2       4 UNK         0.4946 
     21 O          26.6727   -1.8859   -8.7982 O.2       4 UNK        -0.5353 
     22 CA         24.5499   -1.6578   -7.6952 C.3       4 UNK         0.0277 
     23 CB         23.8098   -3.0044   -7.6745 C.3       4 UNK        -0.1981 
     24 N          24.1133   -0.8402   -6.5593 N.am      4 UNK        -0.4209 
     25 C          24.5216    0.4159   -6.3260 C.2       3 UNK         0.4942 
     26 O          25.2493    1.0487   -7.0918 O.2       3 UNK        -0.5208 
     27 CA         24.1055    1.0502   -4.9866 C.3       3 UNK         0.0250 
     28 CB         22.7951    1.8350   -5.1501 C.3       3 UNK        -0.1990 
     29 N          23.9742    0.0894   -3.8807 N.am      3 UNK        -0.4232 
     30 C          24.9632   -0.6955   -3.4283 C.2       2 UNK         0.4993 
     31 O          26.0897   -0.7230   -3.9272 O.2       2 UNK        -0.5286 
     32 CA         24.6176   -1.6602   -2.2825 C.3       2 UNK         0.0209 
     33 CB         23.9626   -2.9324   -2.8456 C.3       2 UNK        -0.1931 
     34 N          25.8001   -2.0516   -1.5110 N.am      2 UNK        -0.4546 
     35 C          26.5333   -1.2412   -0.7385 C.2       1 UNK         0.5154 
     36 O          26.2532   -0.0572   -0.5427 O.2       1 UNK        -0.5181 
     37 C          28.7412   -0.7202   -6.3384 C.2       5 UNK         0.5014 
     38 O          29.6266   -0.4291   -7.1436 O.2       5 UNK        -0.5248 
     39 N          28.2804    0.1208   -5.4046 N.am      6 UNK        -0.4434 
     40 CA         28.9000    1.3965   -5.0588 C.3       6 UNK         0.0363 
     41 CB         28.2709    1.9292   -3.7617 C.3       6 UNK        -0.1936 
     42 C          28.8323    2.4570   -6.1659 C.2       6 UNK         0.5081 
     43 O          29.8105    3.1849   -6.3392 O.2       6 UNK        -0.5248 
     44 N          27.6969    2.5397   -6.8734 N.am      7 UNK        -0.4718 
     45 CA         27.4121    3.5943   -7.8474 C.3       7 UNK         0.0273 
     46 CB         26.1119    4.3184   -7.4578 C.3       7 UNK        -0.1935 
     47 C          27.3254    3.0621   -9.2826 C.2       7 UNK         0.5018 
     48 O          27.8884    3.6984  -10.1728 O.2       7 UNK        -0.5186 
     49 N          26.6308    1.9332   -9.5033 N.am      8 UNK        -0.4240 
     50 CA         26.4288    1.3788  -10.8505 C.3       8 UNK         0.0235 
     51 CB         25.2056    0.4506  -10.9001 C.3       8 UNK        -0.2000 
     52 C          27.6973    0.7000  -11.3931 C.2       8 UNK         0.4941 
     53 O          28.1611    1.0775  -12.4699 O.2       8 UNK        -0.5273 
     54 N          28.2717   -0.2427  -10.6273 N.am      9 UNK        -0.4262 
     55 CA         29.6099   -0.7956  -10.8909 C.3       9 UNK         0.0264 
     56 CB         29.7839   -2.1407  -10.1690 C.3       9 UNK        -0.1955 
     57 C          30.7406    0.1924  -10.5320 C.2       9 UNK         0.5031 
     58 O          31.8534    0.0426  -11.0385 O.2       9 UNK        -0.5390 
     59 N          30.4135    1.2046   -9.7155 N.am      10 UNK        -0.4204 
     60 CA         31.1762    2.4235   -9.4339 C.3       10 UNK         0.0237 
     61 CB         31.3997    3.2385  -10.7275 C.3       10 UNK        -0.1985 
     62 C          32.4728    2.2078   -8.6331 C.2       10 UNK         0.4970 
     63 O          33.4117    2.9897   -8.7995 O.2       10 UNK        -0.4914 
     64 N          32.5139    1.1879   -7.7635 N.am      11 UNK        -0.4285 
     65 CA         33.6501    0.9616   -6.8508 C.3       11 UNK         0.1007 
     66 C          33.6560    1.8651   -5.5803 C.2       11 UNK         0.5703 
     67 N          32.6295    2.6666   -5.3149 N.am      11 UNK        -0.7361 
     68 O          34.6276    1.8544   -4.8279 O.2       11 UNK        -0.4986 
     69 C69        33.8686   -0.5408   -6.5338 C.3       12 UNK        -0.0947 
     70 S70        32.5369   -1.2889   -5.5476 S.3       12 UNK        -0.2240 
     71 C71        33.4201   -2.6631   -4.7427 C.3       12 UNK         0.0194 
     72 H72        27.7443   -6.2754    0.8435 H         1 UNK         0.0906 
     73 H73        27.1155   -5.1973    2.0909 H         1 UNK         0.0906 
     74 H74        26.0180   -5.9113    0.9071 H         1 UNK         0.0906 
     75 H75        27.5149   -3.0664    1.6553 H         1 UNK         0.3140 
     76 H76        28.0014   -1.1500    0.7727 H         1 UNK         0.1085 
     77 H77        28.8772   -2.6247   -1.7586 H         1 UNK         0.0836 
     78 H78        29.1125   -0.9259   -1.4871 H         1 UNK         0.0836 
     79 H79        31.8966   -4.1682    0.0602 H         1 UNK         0.0731 
     80 H80        30.2036   -4.5543   -0.1091 H         1 UNK         0.0731 
     81 H81        32.9122   -2.7656   -2.0482 H         1 UNK         0.1312 
     82 H82        31.6565   -4.3968   -5.8055 H         1 UNK         0.1406 
     83 H83        29.4818   -5.3373   -2.2345 H         1 UNK         0.1631 
     84 H84        29.7602   -5.7966   -5.9654 H         1 UNK         0.0717 
     85 H85        29.1640   -6.6171   -4.5439 H         1 UNK         0.0717 
     86 H86        27.9935   -2.3904   -4.1731 H         1 UNK         0.0934 
     87 H87        29.5176   -2.7984   -4.8534 H         1 UNK         0.0934 
     88 H88        28.5481   -2.6879   -7.1732 H         1 UNK         0.0739 
     89 H89        26.1229   -1.9324   -5.6950 H         1 UNK         0.3093 
     90 H90        24.2673   -1.1283   -8.6051 H         1 UNK         0.0818 
     91 H91        22.7301   -2.8659   -7.7345 H         1 UNK         0.0819 
     92 H92        24.1028   -3.6216   -8.5252 H         1 UNK         0.0819 
     93 H93        24.0271   -3.5734   -6.7695 H         1 UNK         0.0819 
     94 H94        23.5060   -1.2793   -5.8834 H         1 UNK         0.3041 
     95 H95        24.8907    1.7571   -4.7115 H         1 UNK         0.0784 
     96 H96        22.8787    2.5703   -5.9521 H         1 UNK         0.0793 
     97 H97        21.9578    1.1800   -5.3944 H         1 UNK         0.0793 
     98 H98        22.5422    2.3801   -4.2405 H         1 UNK         0.0793 
     99 H99        23.0707    0.0433   -3.4308 H         1 UNK         0.3024 
    100 H100       23.9204   -1.1620   -1.6053 H         1 UNK         0.1171 
    101 H101       23.0531   -2.6992   -3.4008 H         1 UNK         0.0786 
    102 H102       24.6336   -3.4639   -3.5226 H         1 UNK         0.0786 
    103 H103       23.6836   -3.6201   -2.0468 H         1 UNK         0.0786 
    104 H104       26.1311   -3.0083   -1.6121 H         1 UNK         0.2977 
    105 H105       27.5085   -0.1855   -4.8107 H         1 UNK         0.3127 
    106 H106       29.9564    1.1990   -4.8627 H         1 UNK         0.0770 
    107 H107       27.2041    2.1208   -3.8796 H         1 UNK         0.0814 
    108 H108       28.7402    2.8651   -3.4553 H         1 UNK         0.0814 
    109 H109       28.3924    1.2215   -2.9413 H         1 UNK         0.0814 
    110 H110       26.9499    1.8721   -6.7043 H         1 UNK         0.2983 
    111 H111       28.2101    4.3404   -7.8358 H         1 UNK         0.0947 
    112 H112       25.8984    5.1335   -8.1506 H         1 UNK         0.0806 
    113 H113       26.1860    4.7530   -6.4609 H         1 UNK         0.0806 
    114 H114       25.2499    3.6512   -7.4674 H         1 UNK         0.0806 
    115 H115       26.1601    1.4820   -8.7228 H         1 UNK         0.3000 
    116 H116       26.2035    2.2183  -11.5129 H         1 UNK         0.0850 
    117 H117       24.9007    0.2808  -11.9333 H         1 UNK         0.0810 
    118 H118       24.3511    0.8798  -10.3764 H         1 UNK         0.0810 
    119 H119       25.4121   -0.5271  -10.4742 H         1 UNK         0.0810 
    120 H120       27.7804   -0.5935   -9.8087 H         1 UNK         0.3040 
    121 H121       29.6879   -0.9910  -11.9626 H         1 UNK         0.0766 
    122 H122       28.9983   -2.8443  -10.4451 H         1 UNK         0.0812 
    123 H123       29.7657   -2.0287   -9.0879 H         1 UNK         0.0812 
    124 H124       30.7386   -2.5993  -10.4290 H         1 UNK         0.0812 
    125 H125       29.4942    1.1627   -9.2996 H         1 UNK         0.3205 
    126 H126       30.5341    3.0288   -8.7959 H         1 UNK         0.0754 
    127 H127       31.8009    4.2279  -10.5046 H         1 UNK         0.0769 
    128 H128       30.4648    3.3865  -11.2686 H         1 UNK         0.0769 
    129 H129       32.1022    2.7460  -11.4004 H         1 UNK         0.0769 
    130 H130       31.7041    0.5915   -7.6424 H         1 UNK         0.2981 
    131 H131       34.5517    1.2600   -7.3892 H         1 UNK         0.0541 
    132 H132       31.8153    2.7064   -5.9149 H         1 UNK         0.3459 
    133 H133       32.6683    3.2471   -4.4930 H         1 UNK         0.3459 
    134 H134       34.8157   -0.6756   -6.0081 H         1 UNK         0.0612 
    135 H135       33.9614   -1.1059   -7.4625 H         1 UNK         0.0612 
    136 H136       34.1768   -2.2669   -4.0638 H         1 UNK         0.0624 
    137 H137       33.9420   -3.2583   -5.4937 H         1 UNK         0.0624 
@<TRIPOS>BOND
     1    1    2 1    
     2    1   72 1    
     3    1   73 1    
     4    1   74 1    
     5    2    3 2    
     6    2    4 am   BACKBONE|DICT|INTERRES
     7    4    5 1    
     8    4   75 1    
     9    5    6 1    
    10    5   35 1    
    11    5   76 1    
    12    6    7 1    
    13    6   77 1    
    14    6   78 1    
    15    7    8 1    
    16    8    9 1    
    17    8   79 1    
    18    8   80 1    
    19    9   10 ar   
    20    9   14 ar   
    21   10   11 ar   
    22   10   81 1    
    23   11   12 ar   
    24   11   71 1    
    25   12   13 ar   
    26   12   82 1    
    27   13   14 ar   
    28   13   15 1    
    29   14   83 1    
    30   15   16 1    
    31   15   84 1    
    32   15   85 1    
    33   16   17 1    
    34   17   18 1    
    35   17   86 1    
    36   17   87 1    
    37   18   19 1    
    38   18   37 1    
    39   18   88 1    
    40   19   20 am   BACKBONE|DICT|INTERRES
    41   19   89 1    
    42   20   21 2    
    43   20   22 1    
    44   22   23 1    
    45   22   24 1    
    46   22   90 1    
    47   23   91 1    
    48   23   92 1    
    49   23   93 1    
    50   24   25 am   BACKBONE|DICT|INTERRES
    51   24   94 1    
    52   25   26 2    
    53   25   27 1    
    54   27   28 1    
    55   27   29 1    
    56   27   95 1    
    57   28   96 1    
    58   28   97 1    
    59   28   98 1    
    60   29   30 am   BACKBONE|DICT|INTERRES
    61   29   99 1    
    62   30   31 2    
    63   30   32 1    
    64   32   33 1    
    65   32   34 1    
    66   32  100 1    
    67   33  101 1    
    68   33  102 1    
    69   33  103 1    
    70   34   35 am   BACKBONE|DICT|INTERRES
    71   34  104 1    
    72   35   36 2    
    73   37   38 2    
    74   37   39 am   BACKBONE|DICT|INTERRES
    75   39   40 1    
    76   39  105 1    
    77   40   41 1    
    78   40   42 1    
    79   40  106 1    
    80   41  107 1    
    81   41  108 1    
    82   41  109 1    
    83   42   43 2    
    84   42   44 am   BACKBONE|DICT|INTERRES
    85   44   45 1    
    86   44  110 1    
    87   45   46 1    
    88   45   47 1    
    89   45  111 1    
    90   46  112 1    
    91   46  113 1    
    92   46  114 1    
    93   47   48 2    
    94   47   49 am   BACKBONE|DICT|INTERRES
    95   49   50 1    
    96   49  115 1    
    97   50   51 1    
    98   50   52 1    
    99   50  116 1    
   100   51  117 1    
   101   51  118 1    
   102   51  119 1    
   103   52   53 2    
   104   52   54 am   BACKBONE|DICT|INTERRES
   105   54   55 1    
   106   54  120 1    
   107   55   56 1    
   108   55   57 1    
   109   55  121 1    
   110   56  122 1    
   111   56  123 1    
   112   56  124 1    
   113   57   58 2    
   114   57   59 am   BACKBONE|DICT|INTERRES
   115   59   60 1    
   116   59  125 1    
   117   60   61 1    
   118   60   62 1    
   119   60  126 1    
   120   61  127 1    
   121   61  128 1    
   122   61  129 1    
   123   62   63 2    
   124   62   64 am   BACKBONE|DICT|INTERRES
   125   64   65 1    
   126   64  130 1    
   127   65   66 1    
   128   65   69 1    
   129   65  131 1    
   130   66   67 am   BACKBONE|DICT|INTERRES
   131   66   68 2    
   132   67  132 1    
   133   67  133 1    
   134   69   70 1    
   135   69  134 1    
   136   69  135 1    
   137   70   71 1    
   138   71  136 1    
   139   71  137 1    
@<TRIPOS>SUBSTRUCTURE
     1 UNK         1 GROUP             0       ****    0 ROOT    
