@<TRIPOS>MOLECULE
3R137
137   139    1
SMALL
USER_CHARGES


@<TRIPOS>ATOM
      1 CA         27.4123   -6.8899   -1.0535 C.3       0 UNK        -0.2020 
      2 C          27.2245   -5.5978   -0.2728 C.2       0 UNK         0.4855 
      3 O          26.4575   -5.5681    0.6896 O.2       0 UNK        -0.5197 
      4 N          27.9191   -4.5288   -0.6821 N.am      1 UNK        -0.4892 
      5 CA         27.8522   -3.1969   -0.0664 C.3       1 UNK         0.0835 
      6 C6         29.0766   -2.3281   -0.4407 C.3       12 UNK        -0.0855 
      7 S7         30.6671   -3.0100    0.1575 S.3       12 UNK        -0.2931 
      8 C8         31.2534   -4.0759   -1.2082 C.3       12 UNK         0.0378 
      9 C9         31.1166   -3.4199   -2.5747 C.ar      12 UNK        -0.0802 
     10 C10        31.8647   -2.2813   -2.8881 C.ar      12 UNK        -0.0944 
     11 C11        31.7003   -1.6406   -4.1193 C.ar      12 UNK        -0.0787 
     12 C12        30.7802   -2.1494   -5.0412 C.ar      12 UNK        -0.0862 
     13 C13        30.0279   -3.2896   -4.7399 C.ar      12 UNK        -0.0733 
     14 C14        30.2146   -3.9310   -3.5133 C.ar      12 UNK        -0.0832 
     15 C15        29.0097   -3.8273   -5.7339 C.3       12 UNK         0.0240 
     16 S16        27.3032   -3.6061   -5.1292 S.3       12 UNK        -0.2522 
     17 C17        26.3746   -3.6693   -6.7025 C.3       12 UNK        -0.0967 
     18 CA         25.9280   -2.3071   -7.3069 C.3       5 UNK         0.0660 
     19 N          24.7306   -1.7394   -6.6812 N.am      5 UNK        -0.4015 
     20 C          23.8567   -0.9668   -7.3488 C.2       4 UNK         0.4946 
     21 O          23.9457   -0.7142   -8.5511 O.2       4 UNK        -0.5353 
     22 CA         22.6878   -0.3576   -6.5562 C.3       4 UNK         0.0277 
     23 CB         21.5226   -1.3559   -6.4605 C.3       4 UNK        -0.1981 
     24 N          23.0592    0.0896   -5.2145 N.am      4 UNK        -0.4209 
     25 C          23.9480    1.0561   -4.9405 C.2       3 UNK         0.4942 
     26 O          24.5442    1.7057   -5.7973 O.2       3 UNK        -0.5208 
     27 CA         24.2567    1.3032   -3.4532 C.3       3 UNK         0.0250 
     28 CB         23.3052    2.3605   -2.8714 C.3       3 UNK        -0.1990 
     29 N          24.1886    0.0792   -2.6467 N.am      3 UNK        -0.4232 
     30 C          24.9753   -0.9880   -2.8393 C.2       2 UNK         0.4993 
     31 O          25.8623   -1.0357   -3.6952 O.2       2 UNK        -0.5286 
     32 CA         24.6561   -2.2361   -2.0076 C.3       2 UNK         0.0209 
     33 CB         23.8887   -3.2608   -2.8605 C.3       2 UNK        -0.1931 
     34 N          25.8840   -2.8523   -1.5143 N.am      2 UNK        -0.4546 
     35 C          26.5458   -2.4526   -0.4198 C.2       1 UNK         0.5154 
     36 O          26.1592   -1.5366    0.3085 O.2       1 UNK        -0.5181 
     37 C          27.0448   -1.2500   -7.3920 C.2       5 UNK         0.5014 
     38 O          27.6673   -1.1276   -8.4464 O.2       5 UNK        -0.5248 
     39 N          27.2527   -0.4814   -6.3106 N.am      6 UNK        -0.4434 
     40 CA         28.2862    0.5540   -6.2075 C.3       6 UNK         0.0363 
     41 CB         28.3627    1.0547   -4.7579 C.3       6 UNK        -0.1936 
     42 C          28.1098    1.7269   -7.1883 C.2       6 UNK         0.5081 
     43 O          29.1018    2.3519   -7.5598 O.2       6 UNK        -0.5248 
     44 N          26.8685    1.9971   -7.6148 N.am      7 UNK        -0.4718 
     45 CA         26.5478    2.9649   -8.6673 C.3       7 UNK         0.0273 
     46 CB         25.0299    3.2065   -8.6887 C.3       7 UNK        -0.1935 
     47 C          27.0392    2.5402  -10.0644 C.2       7 UNK         0.5018 
     48 O          27.2820    3.4126  -10.8994 O.2       7 UNK        -0.5186 
     49 N          27.1655    1.2267  -10.2990 N.am      8 UNK        -0.4240 
     50 CA         27.6551    0.6484  -11.5496 C.3       8 UNK         0.0235 
     51 CB         26.8217   -0.5966  -11.9014 C.3       8 UNK        -0.2000 
     52 C          29.1452    0.3051  -11.4305 C.2       8 UNK         0.4941 
     53 O          29.9517    0.7946  -12.2225 O.2       8 UNK        -0.5273 
     54 N          29.4895   -0.5145  -10.4309 N.am      9 UNK        -0.4262 
     55 CA         30.8492   -0.9344  -10.1094 C.3       9 UNK         0.0264 
     56 CB         30.8073   -2.3736   -9.5622 C.3       9 UNK        -0.1955 
     57 C          31.4543    0.0568   -9.1066 C.2       9 UNK         0.5031 
     58 O          31.5772   -0.2615   -7.9236 O.2       9 UNK        -0.5390 
     59 N          31.7857    1.2585   -9.5938 N.am      10 UNK        -0.4204 
     60 CA         32.3834    2.3363   -8.8070 C.3       10 UNK         0.0237 
     61 CB         32.3888    3.6314   -9.6365 C.3       10 UNK        -0.1985 
     62 C          33.7993    1.9621   -8.3393 C.2       10 UNK         0.4970 
     63 O          34.6962    1.8222   -9.1737 O.2       10 UNK        -0.4914 
     64 N          33.9643    1.8029   -7.0218 N.am      11 UNK        -0.4285 
     65 CA         35.2392    1.4596   -6.3717 C.3       11 UNK         0.1007 
     66 C          36.2451    2.6439   -6.2639 C.2       11 UNK         0.5703 
     67 N          35.8546    3.8827   -6.5420 N.am      11 UNK        -0.7361 
     68 O          37.4086    2.4315   -5.9301 O.2       11 UNK        -0.4986 
     69 C69        35.0107    0.7938   -4.9888 C.3       12 UNK        -0.0947 
     70 S70        34.1419   -0.8078   -5.1021 S.3       12 UNK        -0.2240 
     71 C71        32.5026   -0.3874   -4.4355 C.3       12 UNK         0.0194 
     72 H72        26.4584   -7.2224   -1.4625 H         1 UNK         0.0906 
     73 H73        28.1121   -6.7716   -1.8805 H         1 UNK         0.0906 
     74 H74        27.7926   -7.6723   -0.3973 H         1 UNK         0.0906 
     75 H75        28.5399   -4.6076   -1.4716 H         1 UNK         0.3140 
     76 H76        27.8512   -3.3268    1.0185 H         1 UNK         0.1085 
     77 H77        29.1083   -2.1414   -1.5147 H         1 UNK         0.0836 
     78 H78        28.9804   -1.3404    0.0152 H         1 UNK         0.0836 
     79 H79        32.3020   -4.3217   -1.0346 H         1 UNK         0.0731 
     80 H80        30.7152   -5.0240   -1.1749 H         1 UNK         0.0731 
     81 H81        32.5626   -1.8835   -2.1638 H         1 UNK         0.1312 
     82 H82        30.6510   -1.6566   -5.9938 H         1 UNK         0.1406 
     83 H83        29.6362   -4.8163   -3.2905 H         1 UNK         0.1631 
     84 H84        29.1251   -3.3229   -6.6936 H         1 UNK         0.0717 
     85 H85        29.1946   -4.8867   -5.9169 H         1 UNK         0.0717 
     86 H86        26.9788   -4.2050   -7.4369 H         1 UNK         0.0934 
     87 H87        25.4999   -4.3031   -6.5487 H         1 UNK         0.0934 
     88 H88        25.6640   -2.5371   -8.3422 H         1 UNK         0.0739 
     89 H89        24.6346   -1.8618   -5.6833 H         1 UNK         0.3093 
     90 H90        22.3415    0.5190   -7.1084 H         1 UNK         0.0818 
     91 H91        20.6505   -0.9046   -5.9869 H         1 UNK         0.0819 
     92 H92        21.2128   -1.6888   -7.4523 H         1 UNK         0.0819 
     93 H93        21.7942   -2.2445   -5.8892 H         1 UNK         0.0819 
     94 H94        22.6128   -0.3773   -4.4393 H         1 UNK         0.3041 
     95 H95        25.2759    1.6885   -3.3880 H         1 UNK         0.0784 
     96 H96        23.3555    3.2868   -3.4459 H         1 UNK         0.0793 
     97 H97        22.2674    2.0249   -2.8849 H         1 UNK         0.0793 
     98 H98        23.5664    2.6063   -1.8419 H         1 UNK         0.0793 
     99 H99        23.4804    0.0481   -1.9269 H         1 UNK         0.3024 
    100 H100       24.0317   -1.9556   -1.1559 H         1 UNK         0.1171 
    101 H101       23.6378   -4.1487   -2.2797 H         1 UNK         0.0786 
    102 H102       22.9516   -2.8424   -3.2299 H         1 UNK         0.0786 
    103 H103       24.4678   -3.5827   -3.7271 H         1 UNK         0.0786 
    104 H104       26.2964   -3.5711   -2.0907 H         1 UNK         0.2977 
    105 H105       26.7205   -0.6736   -5.4652 H         1 UNK         0.3127 
    106 H106       29.2398    0.0852   -6.4535 H         1 UNK         0.0770 
    107 H107       27.4306    1.5276   -4.4491 H         1 UNK         0.0814 
    108 H108       29.1600    1.7897   -4.6402 H         1 UNK         0.0814 
    109 H109       28.5702    0.2363   -4.0676 H         1 UNK         0.0814 
    110 H110       26.0875    1.5186   -7.1777 H         1 UNK         0.2983 
    111 H111       27.0421    3.9074   -8.4217 H         1 UNK         0.0947 
    112 H112       24.7547    3.9113   -9.4745 H         1 UNK         0.0806 
    113 H113       24.6831    3.6261   -7.7443 H         1 UNK         0.0806 
    114 H114       24.4777    2.2826   -8.8674 H         1 UNK         0.0806 
    115 H115       27.0001    0.5821   -9.5349 H         1 UNK         0.3000 
    116 H116       27.5414    1.3653  -12.3657 H         1 UNK         0.0850 
    117 H117       27.1819   -1.0601  -12.8208 H         1 UNK         0.0810 
    118 H118       25.7748   -0.3362  -12.0587 H         1 UNK         0.0810 
    119 H119       26.8594   -1.3533  -11.1167 H         1 UNK         0.0810 
    120 H120       28.7717   -0.8057   -9.7662 H         1 UNK         0.3040 
    121 H121       31.4684   -0.9335  -11.0091 H         1 UNK         0.0766 
    122 H122       30.4127   -3.0679  -10.3039 H         1 UNK         0.0812 
    123 H123       30.1841   -2.4473   -8.6708 H         1 UNK         0.0812 
    124 H124       31.8065   -2.7174   -9.2917 H         1 UNK         0.0812 
    125 H125       31.6297    1.4366  -10.5769 H         1 UNK         0.3205 
    126 H126       31.7533    2.5020   -7.9308 H         1 UNK         0.0754 
    127 H127       32.8238    4.4558   -9.0701 H         1 UNK         0.0769 
    128 H128       31.3759    3.9272   -9.9117 H         1 UNK         0.0769 
    129 H129       32.9686    3.5237  -10.5543 H         1 UNK         0.0769 
    130 H130       33.1685    1.9082   -6.4114 H         1 UNK         0.2981 
    131 H131       35.7358    0.7207   -7.0038 H         1 UNK         0.0541 
    132 H132       34.9046    4.0713   -6.8170 H         1 UNK         0.3459 
    133 H133       36.5199    4.6365   -6.4721 H         1 UNK         0.3459 
    134 H134       34.4707    1.4689   -4.3228 H         1 UNK         0.0612 
    135 H135       35.9657    0.5926   -4.4999 H         1 UNK         0.0612 
    136 H136       32.6155    0.2081   -3.5283 H         1 UNK         0.0624 
    137 H137       31.9687    0.2364   -5.1541 H         1 UNK         0.0624 
@<TRIPOS>BOND
     1    1    2 1    
     2    1   72 1    
     3    1   73 1    
     4    1   74 1    
     5    2    3 2    
     6    2    4 am   BACKBONE|DICT|INTERRES
     7    4    5 1    
     8    4   75 1    
     9    5    6 1    
    10    5   35 1    
    11    5   76 1    
    12    6    7 1    
    13    6   77 1    
    14    6   78 1    
    15    7    8 1    
    16    8    9 1    
    17    8   79 1    
    18    8   80 1    
    19    9   10 ar   
    20    9   14 ar   
    21   10   11 ar   
    22   10   81 1    
    23   11   12 ar   
    24   11   71 1    
    25   12   13 ar   
    26   12   82 1    
    27   13   14 ar   
    28   13   15 1    
    29   14   83 1    
    30   15   16 1    
    31   15   84 1    
    32   15   85 1    
    33   16   17 1    
    34   17   18 1    
    35   17   86 1    
    36   17   87 1    
    37   18   19 1    
    38   18   37 1    
    39   18   88 1    
    40   19   20 am   BACKBONE|DICT|INTERRES
    41   19   89 1    
    42   20   21 2    
    43   20   22 1    
    44   22   23 1    
    45   22   24 1    
    46   22   90 1    
    47   23   91 1    
    48   23   92 1    
    49   23   93 1    
    50   24   25 am   BACKBONE|DICT|INTERRES
    51   24   94 1    
    52   25   26 2    
    53   25   27 1    
    54   27   28 1    
    55   27   29 1    
    56   27   95 1    
    57   28   96 1    
    58   28   97 1    
    59   28   98 1    
    60   29   30 am   BACKBONE|DICT|INTERRES
    61   29   99 1    
    62   30   31 2    
    63   30   32 1    
    64   32   33 1    
    65   32   34 1    
    66   32  100 1    
    67   33  101 1    
    68   33  102 1    
    69   33  103 1    
    70   34   35 am   BACKBONE|DICT|INTERRES
    71   34  104 1    
    72   35   36 2    
    73   37   38 2    
    74   37   39 am   BACKBONE|DICT|INTERRES
    75   39   40 1    
    76   39  105 1    
    77   40   41 1    
    78   40   42 1    
    79   40  106 1    
    80   41  107 1    
    81   41  108 1    
    82   41  109 1    
    83   42   43 2    
    84   42   44 am   BACKBONE|DICT|INTERRES
    85   44   45 1    
    86   44  110 1    
    87   45   46 1    
    88   45   47 1    
    89   45  111 1    
    90   46  112 1    
    91   46  113 1    
    92   46  114 1    
    93   47   48 2    
    94   47   49 am   BACKBONE|DICT|INTERRES
    95   49   50 1    
    96   49  115 1    
    97   50   51 1    
    98   50   52 1    
    99   50  116 1    
   100   51  117 1    
   101   51  118 1    
   102   51  119 1    
   103   52   53 2    
   104   52   54 am   BACKBONE|DICT|INTERRES
   105   54   55 1    
   106   54  120 1    
   107   55   56 1    
   108   55   57 1    
   109   55  121 1    
   110   56  122 1    
   111   56  123 1    
   112   56  124 1    
   113   57   58 2    
   114   57   59 am   BACKBONE|DICT|INTERRES
   115   59   60 1    
   116   59  125 1    
   117   60   61 1    
   118   60   62 1    
   119   60  126 1    
   120   61  127 1    
   121   61  128 1    
   122   61  129 1    
   123   62   63 2    
   124   62   64 am   BACKBONE|DICT|INTERRES
   125   64   65 1    
   126   64  130 1    
   127   65   66 1    
   128   65   69 1    
   129   65  131 1    
   130   66   67 am   BACKBONE|DICT|INTERRES
   131   66   68 2    
   132   67  132 1    
   133   67  133 1    
   134   69   70 1    
   135   69  134 1    
   136   69  135 1    
   137   70   71 1    
   138   71  136 1    
   139   71  137 1    
@<TRIPOS>SUBSTRUCTURE
     1 UNK         1 GROUP             0       ****    0 ROOT    
