@<TRIPOS>MOLECULE
3R137
137   139    1
SMALL
USER_CHARGES


@<TRIPOS>ATOM
      1 CA         26.8660   -0.6462    2.0562 C.3       0 UNK        -0.2020 
      2 C          27.3435   -1.2852    0.7609 C.2       0 UNK         0.4855 
      3 O          27.3829   -0.6178   -0.2720 O.2       0 UNK        -0.5197 
      4 N          27.7108   -2.5711    0.8092 N.am      1 UNK        -0.4892 
      5 CA         28.1662   -3.3602   -0.3387 C.3       1 UNK         0.0835 
      6 C6         29.0730   -4.5442    0.0975 C.3       12 UNK        -0.0855 
      7 S7         30.5508   -3.9902    1.0235 S.3       12 UNK        -0.2931 
      8 C8         31.9358   -4.5961   -0.0089 C.3       12 UNK         0.0378 
      9 C9         32.0000   -4.0204   -1.4246 C.ar      12 UNK        -0.0802 
     10 C10        32.6218   -4.7646   -2.4336 C.ar      12 UNK        -0.0944 
     11 C11        32.6842   -4.2947   -3.7508 C.ar      12 UNK        -0.0787 
     12 C12        32.0812   -3.0672   -4.0550 C.ar      12 UNK        -0.0862 
     13 C13        31.4913   -2.2950   -3.0534 C.ar      12 UNK        -0.0733 
     14 C14        31.4726   -2.7638   -1.7395 C.ar      12 UNK        -0.0832 
     15 C15        30.8579   -0.9594   -3.3930 C.3       12 UNK         0.0240 
     16 S16        29.0886   -1.1744   -3.7263 S.3       12 UNK        -0.2522 
     17 C17        28.5936    0.5469   -4.0592 C.3       12 UNK        -0.0967 
     18 CA         28.2906    0.7833   -5.5567 C.3       5 UNK         0.0660 
     19 N          27.2240   -0.0914   -6.0594 N.am      5 UNK        -0.4015 
     20 C          26.9015   -0.2161   -7.3556 C.2       4 UNK         0.4946 
     21 O          27.5266    0.3416   -8.2575 O.2       4 UNK        -0.5353 
     22 CA         25.6629   -1.0511   -7.7298 C.3       4 UNK         0.0277 
     23 CB         26.0815   -2.4445   -8.2218 C.3       4 UNK        -0.1981 
     24 N          24.6837   -1.1982   -6.6519 N.am      4 UNK        -0.4209 
     25 C          24.0492   -0.1999   -6.0197 C.2       3 UNK         0.4942 
     26 O          24.1829    0.9898   -6.3111 O.2       3 UNK        -0.5208 
     27 CA         23.1872   -0.5983   -4.8063 C.3       3 UNK         0.0250 
     28 CB         21.7318   -0.8360   -5.2379 C.3       3 UNK        -0.1990 
     29 N          23.6926   -1.7815   -4.0903 N.am      3 UNK        -0.4232 
     30 C          24.9141   -1.8654   -3.5424 C.2       2 UNK         0.4993 
     31 O          25.7295   -0.9415   -3.5677 O.2       2 UNK        -0.5286 
     32 CA         25.3226   -3.2150   -2.9415 C.3       2 UNK         0.0209 
     33 CB         25.6543   -4.2258   -4.0576 C.3       2 UNK        -0.1931 
     34 N          26.4956   -3.0062   -2.0962 N.am      2 UNK        -0.4546 
     35 C          26.9373   -3.8308   -1.1418 C.2       1 UNK         0.5154 
     36 O          26.3909   -4.8993   -0.8579 O.2       1 UNK        -0.5181 
     37 C          27.9875    2.2747   -5.8111 C.2       5 UNK         0.5014 
     38 O          28.9264    3.0536   -5.9761 O.2       5 UNK        -0.5248 
     39 N          26.6986    2.6410   -5.8571 N.am      6 UNK        -0.4434 
     40 CA         26.2317    3.9795   -6.2090 C.3       6 UNK         0.0363 
     41 CB         25.0714    4.3757   -5.2807 C.3       6 UNK        -0.1936 
     42 C          25.7902    4.0356   -7.6781 C.2       6 UNK         0.5081 
     43 O          26.1594    4.9747   -8.3825 O.2       6 UNK        -0.5248 
     44 N          24.9955    3.0462   -8.1114 N.am      7 UNK        -0.4718 
     45 CA         24.3350    3.0377   -9.4190 C.3       7 UNK         0.0273 
     46 CB         23.1821    2.0206   -9.4005 C.3       7 UNK        -0.1935 
     47 C          25.2724    2.7697  -10.6077 C.2       7 UNK         0.5018 
     48 O          25.0413    3.3315  -11.6794 O.2       7 UNK        -0.5186 
     49 N          26.2864    1.9154  -10.4160 N.am      8 UNK        -0.4240 
     50 CA         27.2148    1.4827  -11.4674 C.3       8 UNK         0.0235 
     51 CB         27.0456   -0.0335  -11.6761 C.3       8 UNK        -0.2000 
     52 C          28.6814    1.8190  -11.1494 C.2       8 UNK         0.4941 
     53 O          29.5342    1.5976  -12.0101 O.2       8 UNK        -0.5273 
     54 N          28.9559    2.3177   -9.9331 N.am      9 UNK        -0.4262 
     55 CA         30.2824    2.5405   -9.3435 C.3       9 UNK         0.0264 
     56 CB         31.0346    3.6726  -10.0757 C.3       9 UNK        -0.1955 
     57 C          31.0967    1.2340   -9.2377 C.2       9 UNK         0.5031 
     58 O          32.2779    1.2118   -9.5953 O.2       9 UNK        -0.5390 
     59 N          30.4317    0.1613   -8.7786 N.am      10 UNK        -0.4204 
     60 CA         30.9736   -1.1960   -8.6594 C.3       10 UNK         0.0237 
     61 CB         29.9154   -2.1202   -8.0374 C.3       10 UNK        -0.1985 
     62 C          32.2795   -1.2784   -7.8512 C.2       10 UNK         0.4970 
     63 O          32.3793   -0.6731   -6.7823 O.2       10 UNK        -0.4914 
     64 N          33.2317   -2.0533   -8.3836 N.am      11 UNK        -0.4285 
     65 CA         34.5606   -2.3443   -7.8155 C.3       11 UNK         0.1007 
     66 C          35.5350   -1.1274   -7.7565 C.2       11 UNK         0.5703 
     67 N          35.2154    0.0172   -8.3505 N.am      11 UNK        -0.7361 
     68 O          36.6225   -1.2329   -7.1937 O.2       11 UNK        -0.4986 
     69 C69        34.5066   -3.1288   -6.4701 C.3       12 UNK        -0.0947 
     70 S70        33.3786   -4.5687   -6.5196 S.3       12 UNK        -0.2240 
     71 C71        33.4190   -5.1518   -4.7877 C.3       12 UNK         0.0194 
     72 H72        25.8423   -0.2903    1.9433 H         1 UNK         0.0906 
     73 H73        26.8921   -1.3461    2.8912 H         1 UNK         0.0906 
     74 H74        27.4970    0.2057    2.3083 H         1 UNK         0.0906 
     75 H75        27.6529   -3.0743    1.6833 H         1 UNK         0.3140 
     76 H76        28.7543   -2.7171   -0.9954 H         1 UNK         0.1085 
     77 H77        28.5219   -5.2401    0.7330 H         1 UNK         0.0836 
     78 H78        29.3875   -5.1188   -0.7759 H         1 UNK         0.0836 
     79 H79        32.8722   -4.3623    0.4992 H         1 UNK         0.0731 
     80 H80        31.8734   -5.6847   -0.0538 H         1 UNK         0.0731 
     81 H81        33.0640   -5.7219   -2.1918 H         1 UNK         0.1312 
     82 H82        32.0684   -2.6894   -5.0661 H         1 UNK         0.1406 
     83 H83        31.0224   -2.1524   -0.9701 H         1 UNK         0.1631 
     84 H84        31.3423   -0.5152   -4.2640 H         1 UNK         0.0717 
     85 H85        30.9941   -0.2595   -2.5670 H         1 UNK         0.0717 
     86 H86        27.7203    0.7754   -3.4453 H         1 UNK         0.0934 
     87 H87        29.3814    1.2207   -3.7161 H         1 UNK         0.0934 
     88 H88        29.1970    0.5474   -6.1185 H         1 UNK         0.0739 
     89 H89        26.6731   -0.5628   -5.3487 H         1 UNK         0.3093 
     90 H90        25.1663   -0.5373   -8.5538 H         1 UNK         0.0818 
     91 H91        25.2170   -3.0401   -8.5154 H         1 UNK         0.0819 
     92 H92        26.7256   -2.3704   -9.0983 H         1 UNK         0.0819 
     93 H93        26.6282   -2.9978   -7.4568 H         1 UNK         0.0819 
     94 H94        24.5067   -2.1391   -6.3329 H         1 UNK         0.3041 
     95 H95        23.2058    0.2417   -4.1086 H         1 UNK         0.0784 
     96 H96        21.3315    0.0373   -5.7553 H         1 UNK         0.0793 
     97 H97        21.6433   -1.6855   -5.9163 H         1 UNK         0.0793 
     98 H98        21.0880   -1.0229   -4.3782 H         1 UNK         0.0793 
     99 H99        23.0743   -2.5791   -4.0381 H         1 UNK         0.3024 
    100 H100       24.4996   -3.5877   -2.3275 H         1 UNK         0.1171 
    101 H101       24.7959   -4.3960   -4.7083 H         1 UNK         0.0786 
    102 H102       25.9385   -5.1948   -3.6470 H         1 UNK         0.0786 
    103 H103       26.4771   -3.8758   -4.6829 H         1 UNK         0.0786 
    104 H104       26.9385   -2.1002   -2.2243 H         1 UNK         0.2977 
    105 H105       25.9830    1.9318   -5.7437 H         1 UNK         0.3127 
    106 H106       27.0328    4.7092   -6.0714 H         1 UNK         0.0770 
    107 H107       24.2314    3.6839   -5.3581 H         1 UNK         0.0814 
    108 H108       24.6985    5.3710   -5.5260 H         1 UNK         0.0814 
    109 H109       25.3903    4.3974   -4.2386 H         1 UNK         0.0814 
    110 H110       24.7135    2.3185   -7.4573 H         1 UNK         0.2983 
    111 H111       23.8991    4.0274   -9.5747 H         1 UNK         0.0947 
    112 H112       22.6402    2.0271  -10.3473 H         1 UNK         0.0806 
    113 H113       22.4625    2.2517   -8.6148 H         1 UNK         0.0806 
    114 H114       23.5383    1.0041   -9.2367 H         1 UNK         0.0806 
    115 H115       26.4170    1.4893   -9.5050 H         1 UNK         0.3000 
    116 H116       26.9851    1.9803  -12.4118 H         1 UNK         0.0850 
    117 H117       27.6755   -0.3894  -12.4924 H         1 UNK         0.0810 
    118 H118       26.0160   -0.2871  -11.9289 H         1 UNK         0.0810 
    119 H119       27.3215   -0.5970  -10.7846 H         1 UNK         0.0810 
    120 H120       28.1782    2.4337   -9.2996 H         1 UNK         0.3040 
    121 H121       30.1129    2.8738   -8.3198 H         1 UNK         0.0766 
    122 H122       31.2936    3.3952  -11.0978 H         1 UNK         0.0812 
    123 H123       30.4379    4.5838  -10.1154 H         1 UNK         0.0812 
    124 H124       31.9649    3.9167   -9.5615 H         1 UNK         0.0812 
    125 H125       29.4473    0.2738   -8.5514 H         1 UNK         0.3205 
    126 H126       31.1710   -1.5410   -9.6764 H         1 UNK         0.0754 
    127 H127       30.2904   -3.1407   -7.9447 H         1 UNK         0.0769 
    128 H128       29.0204   -2.1618   -8.6555 H         1 UNK         0.0769 
    129 H129       29.6270   -1.7898   -7.0385 H         1 UNK         0.0769 
    130 H130       33.0473   -2.4959   -9.2719 H         1 UNK         0.2981 
    131 H131       35.0213   -3.0133   -8.5430 H         1 UNK         0.0541 
    132 H132       34.3171    0.1354   -8.7976 H         1 UNK         0.3459 
    133 H133       35.8635    0.7875   -8.3138 H         1 UNK         0.3459 
    134 H134       34.2201   -2.4610   -5.6581 H         1 UNK         0.0612 
    135 H135       35.5001   -3.4999   -6.2128 H         1 UNK         0.0612 
    136 H136       34.4611   -5.2593   -4.4835 H         1 UNK         0.0624 
    137 H137       32.9891   -6.1543   -4.7703 H         1 UNK         0.0624 
@<TRIPOS>BOND
     1    1    2 1    
     2    1   72 1    
     3    1   73 1    
     4    1   74 1    
     5    2    3 2    
     6    2    4 am   BACKBONE|DICT|INTERRES
     7    4    5 1    
     8    4   75 1    
     9    5    6 1    
    10    5   35 1    
    11    5   76 1    
    12    6    7 1    
    13    6   77 1    
    14    6   78 1    
    15    7    8 1    
    16    8    9 1    
    17    8   79 1    
    18    8   80 1    
    19    9   10 ar   
    20    9   14 ar   
    21   10   11 ar   
    22   10   81 1    
    23   11   12 ar   
    24   11   71 1    
    25   12   13 ar   
    26   12   82 1    
    27   13   14 ar   
    28   13   15 1    
    29   14   83 1    
    30   15   16 1    
    31   15   84 1    
    32   15   85 1    
    33   16   17 1    
    34   17   18 1    
    35   17   86 1    
    36   17   87 1    
    37   18   19 1    
    38   18   37 1    
    39   18   88 1    
    40   19   20 am   BACKBONE|DICT|INTERRES
    41   19   89 1    
    42   20   21 2    
    43   20   22 1    
    44   22   23 1    
    45   22   24 1    
    46   22   90 1    
    47   23   91 1    
    48   23   92 1    
    49   23   93 1    
    50   24   25 am   BACKBONE|DICT|INTERRES
    51   24   94 1    
    52   25   26 2    
    53   25   27 1    
    54   27   28 1    
    55   27   29 1    
    56   27   95 1    
    57   28   96 1    
    58   28   97 1    
    59   28   98 1    
    60   29   30 am   BACKBONE|DICT|INTERRES
    61   29   99 1    
    62   30   31 2    
    63   30   32 1    
    64   32   33 1    
    65   32   34 1    
    66   32  100 1    
    67   33  101 1    
    68   33  102 1    
    69   33  103 1    
    70   34   35 am   BACKBONE|DICT|INTERRES
    71   34  104 1    
    72   35   36 2    
    73   37   38 2    
    74   37   39 am   BACKBONE|DICT|INTERRES
    75   39   40 1    
    76   39  105 1    
    77   40   41 1    
    78   40   42 1    
    79   40  106 1    
    80   41  107 1    
    81   41  108 1    
    82   41  109 1    
    83   42   43 2    
    84   42   44 am   BACKBONE|DICT|INTERRES
    85   44   45 1    
    86   44  110 1    
    87   45   46 1    
    88   45   47 1    
    89   45  111 1    
    90   46  112 1    
    91   46  113 1    
    92   46  114 1    
    93   47   48 2    
    94   47   49 am   BACKBONE|DICT|INTERRES
    95   49   50 1    
    96   49  115 1    
    97   50   51 1    
    98   50   52 1    
    99   50  116 1    
   100   51  117 1    
   101   51  118 1    
   102   51  119 1    
   103   52   53 2    
   104   52   54 am   BACKBONE|DICT|INTERRES
   105   54   55 1    
   106   54  120 1    
   107   55   56 1    
   108   55   57 1    
   109   55  121 1    
   110   56  122 1    
   111   56  123 1    
   112   56  124 1    
   113   57   58 2    
   114   57   59 am   BACKBONE|DICT|INTERRES
   115   59   60 1    
   116   59  125 1    
   117   60   61 1    
   118   60   62 1    
   119   60  126 1    
   120   61  127 1    
   121   61  128 1    
   122   61  129 1    
   123   62   63 2    
   124   62   64 am   BACKBONE|DICT|INTERRES
   125   64   65 1    
   126   64  130 1    
   127   65   66 1    
   128   65   69 1    
   129   65  131 1    
   130   66   67 am   BACKBONE|DICT|INTERRES
   131   66   68 2    
   132   67  132 1    
   133   67  133 1    
   134   69   70 1    
   135   69  134 1    
   136   69  135 1    
   137   70   71 1    
   138   71  136 1    
   139   71  137 1    
@<TRIPOS>SUBSTRUCTURE
     1 UNK         1 GROUP             0       ****    0 ROOT    
