@<TRIPOS>MOLECULE
3R137
137   139    1
SMALL
USER_CHARGES


@<TRIPOS>ATOM
      1 CA         27.2200   -9.6381    0.1062 C.3       0 UNK        -0.2020 
      2 C          27.1394   -8.1396   -0.1454 C.2       0 UNK         0.4855 
      3 O          26.2278   -7.4826    0.3598 O.2       0 UNK        -0.5197 
      4 N          28.0894   -7.5930   -0.9152 N.am      1 UNK        -0.4892 
      5 CA         28.1246   -6.1833   -1.3209 C.3       1 UNK         0.0835 
      6 C6         29.5552   -5.7620   -1.7526 C.3       12 UNK        -0.0855 
      7 S7         29.9344   -4.0369   -1.2988 S.3       12 UNK        -0.2931 
      8 C8         29.8916   -3.2199   -2.9232 C.3       12 UNK         0.0378 
      9 C9         30.1353   -1.7245   -2.7936 C.ar      12 UNK        -0.0802 
     10 C10        31.3303   -1.1606   -3.2483 C.ar      12 UNK        -0.0944 
     11 C11        31.5484    0.2210   -3.1636 C.ar      12 UNK        -0.0787 
     12 C12        30.5549    1.0319   -2.6076 C.ar      12 UNK        -0.0862 
     13 C13        29.3577    0.4798   -2.1443 C.ar      12 UNK        -0.0733 
     14 C14        29.1535   -0.8989   -2.2399 C.ar      12 UNK        -0.0832 
     15 C15        28.2818    1.3730   -1.5452 C.3       12 UNK         0.0240 
     16 S16        26.8106    1.4825   -2.6112 S.3       12 UNK        -0.2522 
     17 C17        27.4819    2.2364   -4.1332 C.3       12 UNK        -0.0967 
     18 CA         27.5865    1.2148   -5.3058 C.3       5 UNK         0.0660 
     19 N          26.2986    0.5776   -5.6077 N.am      5 UNK        -0.4015 
     20 C          25.2304    1.1713   -6.1605 C.2       4 UNK         0.4946 
     21 O          25.2156    2.3406   -6.5491 O.2       4 UNK        -0.5353 
     22 CA         23.9598    0.3183   -6.3055 C.3       4 UNK         0.0277 
     23 CB         24.0019   -0.5017   -7.6036 C.3       4 UNK        -0.1981 
     24 N          23.7348   -0.5871   -5.1758 N.am      4 UNK        -0.4209 
     25 C          23.3499   -0.2049   -3.9487 C.2       3 UNK         0.4942 
     26 O          23.1422    0.9665   -3.6314 O.2       3 UNK        -0.5208 
     27 CA         23.1222   -1.3145   -2.9050 C.3       3 UNK         0.0250 
     28 CB         21.6170   -1.5796   -2.7280 C.3       3 UNK        -0.1990 
     29 N          23.7905   -2.5737   -3.2536 N.am      3 UNK        -0.4232 
     30 C          25.0605   -2.8576   -2.9420 C.2       2 UNK         0.4993 
     31 O          25.7974   -2.1117   -2.2939 O.2       2 UNK        -0.5286 
     32 CA         25.6175   -4.1836   -3.4672 C.3       2 UNK         0.0209 
     33 CB         26.2240   -3.9961   -4.8734 C.3       2 UNK        -0.1931 
     34 N          26.6341   -4.6509   -2.5279 N.am      2 UNK        -0.4546 
     35 C          27.0823   -5.9059   -2.4279 C.2       1 UNK         0.5154 
     36 O          26.7196   -6.8184   -3.1771 O.2       1 UNK        -0.5181 
     37 C          28.2146    1.7988   -6.5940 C.2       5 UNK         0.5014 
     38 O          28.5382    1.0400   -7.5128 O.2       5 UNK        -0.5248 
     39 N          28.3352    3.1318   -6.6684 N.am      6 UNK        -0.4434 
     40 CA         28.8351    3.8722   -7.8274 C.3       6 UNK         0.0363 
     41 CB         28.9728    5.3580   -7.4604 C.3       6 UNK        -0.1936 
     42 C          27.9751    3.7110   -9.0939 C.2       6 UNK         0.5081 
     43 O          28.5227    3.8004  -10.1917 O.2       6 UNK        -0.5248 
     44 N          26.6702    3.4301   -8.9472 N.am      7 UNK        -0.4718 
     45 CA         25.7622    3.1775  -10.0745 C.3       7 UNK         0.0273 
     46 CB         24.3018    3.2688   -9.6046 C.3       7 UNK        -0.1935 
     47 C          26.0306    1.8356  -10.7818 C.2       7 UNK         0.5018 
     48 O          25.6766    1.6960  -11.9527 O.2       7 UNK        -0.5186 
     49 N          26.6768    0.8933  -10.0801 N.am      8 UNK        -0.4240 
     50 CA         27.1937   -0.3586  -10.6393 C.3       8 UNK         0.0235 
     51 CB         26.9740   -1.4901   -9.6193 C.3       8 UNK        -0.2000 
     52 C          28.6809   -0.2527  -11.0279 C.2       8 UNK         0.4941 
     53 O          29.2470   -1.2496  -11.4778 O.2       8 UNK        -0.5273 
     54 N          29.2925    0.9279  -10.8327 N.am      9 UNK        -0.4262 
     55 CA         30.7171    1.2343  -11.0027 C.3       9 UNK         0.0264 
     56 CB         31.1202    1.1748  -12.4915 C.3       9 UNK        -0.1955 
     57 C          31.6259    0.3825  -10.0935 C.2       9 UNK         0.5031 
     58 O          32.7188   -0.0094  -10.5114 O.2       9 UNK        -0.5390 
     59 N          31.1593    0.1004   -8.8674 N.am      10 UNK        -0.4204 
     60 CA         31.8969   -0.6710   -7.8666 C.3       10 UNK         0.0237 
     61 CB         30.9484   -1.0386   -6.7148 C.3       10 UNK        -0.1985 
     62 C          33.1268    0.0921   -7.3428 C.2       10 UNK         0.4970 
     63 O          33.1337    1.3255   -7.3442 O.2       10 UNK        -0.4914 
     64 N          34.1294   -0.6683   -6.8869 N.am      11 UNK        -0.4285 
     65 CA         35.4167   -0.1916   -6.3429 C.3       11 UNK         0.1007 
     66 C          36.3635    0.4794   -7.3859 C.2       11 UNK         0.5703 
     67 N          36.0826    0.4145   -8.6823 N.am      11 UNK        -0.7361 
     68 O          37.3955    1.0385   -7.0188 O.2       11 UNK        -0.4986 
     69 C69        35.2760    0.6568   -5.0427 C.3       12 UNK        -0.0947 
     70 S70        34.2931   -0.1707   -3.7460 S.3       12 UNK        -0.2240 
     71 C71        32.8037    0.8839   -3.7259 C.3       12 UNK         0.0194 
     72 H72        26.3090  -10.1254   -0.2426 H         1 UNK         0.0906 
     73 H73        28.0671  -10.0940   -0.4083 H         1 UNK         0.0906 
     74 H74        27.3256   -9.8348    1.1741 H         1 UNK         0.0906 
     75 H75        28.7885   -8.1887   -1.3368 H         1 UNK         0.3140 
     76 H76        27.8368   -5.5976   -0.4440 H         1 UNK         0.1085 
     77 H77        30.2983   -6.3727   -1.2357 H         1 UNK         0.0836 
     78 H78        29.7320   -5.9343   -2.8170 H         1 UNK         0.0836 
     79 H79        30.6378   -3.6773   -3.5751 H         1 UNK         0.0731 
     80 H80        28.9251   -3.3854   -3.3979 H         1 UNK         0.0731 
     81 H81        32.0796   -1.8023   -3.6891 H         1 UNK         0.1312 
     82 H82        30.7091    2.1009   -2.5479 H         1 UNK         0.1406 
     83 H83        28.2245   -1.3275   -1.8890 H         1 UNK         0.1631 
     84 H84        28.6645    2.3773   -1.3570 H         1 UNK         0.0717 
     85 H85        27.9836    0.9725   -0.5753 H         1 UNK         0.0717 
     86 H86        26.8210    3.0649   -4.3943 H         1 UNK         0.0934 
     87 H87        28.4560    2.6765   -3.9127 H         1 UNK         0.0934 
     88 H88        28.2569    0.4143   -4.9886 H         1 UNK         0.0739 
     89 H89        26.2141   -0.3859   -5.3235 H         1 UNK         0.3093 
     90 H90        23.1134    1.0063   -6.3652 H         1 UNK         0.0818 
     91 H91        23.0401   -0.9750   -7.8028 H         1 UNK         0.0819 
     92 H92        24.2361    0.1248   -8.4648 H         1 UNK         0.0819 
     93 H93        24.7556   -1.2872   -7.5525 H         1 UNK         0.0819 
     94 H94        23.8534   -1.5730   -5.3508 H         1 UNK         0.3041 
     95 H95        23.5146   -0.9495   -1.9528 H         1 UNK         0.0784 
     96 H96        21.0918   -0.6683   -2.4375 H         1 UNK         0.0793 
     97 H97        21.1571   -1.9408   -3.6488 H         1 UNK         0.0793 
     98 H98        21.4336   -2.3186   -1.9477 H         1 UNK         0.0793 
     99 H99        23.2447   -3.2498   -3.7698 H         1 UNK         0.3024 
    100 H100       24.8097   -4.9190   -3.5075 H         1 UNK         0.1171 
    101 H101       25.4641   -3.6795   -5.5890 H         1 UNK         0.0786 
    102 H102       26.6520   -4.9241   -5.2537 H         1 UNK         0.0786 
    103 H103       27.0107   -3.2402   -4.8771 H         1 UNK         0.0786 
    104 H104       26.9554   -3.9398   -1.8807 H         1 UNK         0.2977 
    105 H105       28.0062    3.6873   -5.8929 H         1 UNK         0.3127 
    106 H106       29.8294    3.4840   -8.0598 H         1 UNK         0.0770 
    107 H107       28.0118    5.7992   -7.1926 H         1 UNK         0.0814 
    108 H108       29.3714    5.9312   -8.2987 H         1 UNK         0.0814 
    109 H109       29.6550    5.4994   -6.6218 H         1 UNK         0.0814 
    110 H110       26.2828    3.3168   -8.0145 H         1 UNK         0.2983 
    111 H111       25.9224    3.9652  -10.8143 H         1 UNK         0.0947 
    112 H112       23.6166    3.1761  -10.4482 H         1 UNK         0.0806 
    113 H113       24.0974    4.2263   -9.1255 H         1 UNK         0.0806 
    114 H114       24.0498    2.4801   -8.8973 H         1 UNK         0.0806 
    115 H115       26.9560    1.1046   -9.1294 H         1 UNK         0.3000 
    116 H116       26.6492   -0.6170  -11.5500 H         1 UNK         0.0850 
    117 H117       27.4321   -2.4226   -9.9529 H         1 UNK         0.0810 
    118 H118       25.9118   -1.6942   -9.4921 H         1 UNK         0.0810 
    119 H119       27.3986   -1.2484   -8.6435 H         1 UNK         0.0810 
    120 H120       28.7327    1.7036  -10.4999 H         1 UNK         0.3040 
    121 H121       30.8464    2.2653  -10.6705 H         1 UNK         0.0766 
    122 H122       30.4692    1.7990  -13.1035 H         1 UNK         0.0812 
    123 H123       31.0771    0.1582  -12.8830 H         1 UNK         0.0812 
    124 H124       32.1398    1.5341  -12.6347 H         1 UNK         0.0812 
    125 H125       30.2594    0.4710   -8.5796 H         1 UNK         0.3205 
    126 H126       32.2340   -1.5935   -8.3444 H         1 UNK         0.0754 
    127 H127       30.6630   -0.1624   -6.1312 H         1 UNK         0.0769 
    128 H128       31.4233   -1.7458   -6.0352 H         1 UNK         0.0769 
    129 H129       30.0351   -1.5089   -7.0809 H         1 UNK         0.0769 
    130 H130       34.0321   -1.6721   -6.9312 H         1 UNK         0.2981 
    131 H131       35.9446   -1.1029   -6.0611 H         1 UNK         0.0541 
    132 H132       35.2351   -0.0273   -9.0050 H         1 UNK         0.3459 
    133 H133       36.7122    0.8413   -9.3432 H         1 UNK         0.3459 
    134 H134       34.8507    1.6361   -5.2656 H         1 UNK         0.0612 
    135 H135       36.2602    0.8534   -4.6144 H         1 UNK         0.0612 
    136 H136       32.5713    1.2116   -4.7371 H         1 UNK         0.0624 
    137 H137       33.0395    1.7842   -3.1578 H         1 UNK         0.0624 
@<TRIPOS>BOND
     1    1    2 1    
     2    1   72 1    
     3    1   73 1    
     4    1   74 1    
     5    2    3 2    
     6    2    4 am   BACKBONE|DICT|INTERRES
     7    4    5 1    
     8    4   75 1    
     9    5    6 1    
    10    5   35 1    
    11    5   76 1    
    12    6    7 1    
    13    6   77 1    
    14    6   78 1    
    15    7    8 1    
    16    8    9 1    
    17    8   79 1    
    18    8   80 1    
    19    9   10 ar   
    20    9   14 ar   
    21   10   11 ar   
    22   10   81 1    
    23   11   12 ar   
    24   11   71 1    
    25   12   13 ar   
    26   12   82 1    
    27   13   14 ar   
    28   13   15 1    
    29   14   83 1    
    30   15   16 1    
    31   15   84 1    
    32   15   85 1    
    33   16   17 1    
    34   17   18 1    
    35   17   86 1    
    36   17   87 1    
    37   18   19 1    
    38   18   37 1    
    39   18   88 1    
    40   19   20 am   BACKBONE|DICT|INTERRES
    41   19   89 1    
    42   20   21 2    
    43   20   22 1    
    44   22   23 1    
    45   22   24 1    
    46   22   90 1    
    47   23   91 1    
    48   23   92 1    
    49   23   93 1    
    50   24   25 am   BACKBONE|DICT|INTERRES
    51   24   94 1    
    52   25   26 2    
    53   25   27 1    
    54   27   28 1    
    55   27   29 1    
    56   27   95 1    
    57   28   96 1    
    58   28   97 1    
    59   28   98 1    
    60   29   30 am   BACKBONE|DICT|INTERRES
    61   29   99 1    
    62   30   31 2    
    63   30   32 1    
    64   32   33 1    
    65   32   34 1    
    66   32  100 1    
    67   33  101 1    
    68   33  102 1    
    69   33  103 1    
    70   34   35 am   BACKBONE|DICT|INTERRES
    71   34  104 1    
    72   35   36 2    
    73   37   38 2    
    74   37   39 am   BACKBONE|DICT|INTERRES
    75   39   40 1    
    76   39  105 1    
    77   40   41 1    
    78   40   42 1    
    79   40  106 1    
    80   41  107 1    
    81   41  108 1    
    82   41  109 1    
    83   42   43 2    
    84   42   44 am   BACKBONE|DICT|INTERRES
    85   44   45 1    
    86   44  110 1    
    87   45   46 1    
    88   45   47 1    
    89   45  111 1    
    90   46  112 1    
    91   46  113 1    
    92   46  114 1    
    93   47   48 2    
    94   47   49 am   BACKBONE|DICT|INTERRES
    95   49   50 1    
    96   49  115 1    
    97   50   51 1    
    98   50   52 1    
    99   50  116 1    
   100   51  117 1    
   101   51  118 1    
   102   51  119 1    
   103   52   53 2    
   104   52   54 am   BACKBONE|DICT|INTERRES
   105   54   55 1    
   106   54  120 1    
   107   55   56 1    
   108   55   57 1    
   109   55  121 1    
   110   56  122 1    
   111   56  123 1    
   112   56  124 1    
   113   57   58 2    
   114   57   59 am   BACKBONE|DICT|INTERRES
   115   59   60 1    
   116   59  125 1    
   117   60   61 1    
   118   60   62 1    
   119   60  126 1    
   120   61  127 1    
   121   61  128 1    
   122   61  129 1    
   123   62   63 2    
   124   62   64 am   BACKBONE|DICT|INTERRES
   125   64   65 1    
   126   64  130 1    
   127   65   66 1    
   128   65   69 1    
   129   65  131 1    
   130   66   67 am   BACKBONE|DICT|INTERRES
   131   66   68 2    
   132   67  132 1    
   133   67  133 1    
   134   69   70 1    
   135   69  134 1    
   136   69  135 1    
   137   70   71 1    
   138   71  136 1    
   139   71  137 1    
@<TRIPOS>SUBSTRUCTURE
     1 UNK         1 GROUP             0       ****    0 ROOT    
