@<TRIPOS>MOLECULE
3R137
137   139    1
SMALL
USER_CHARGES


@<TRIPOS>ATOM
      1 CA         25.0000   -2.6107   -8.3150 C.3       0 UNK        -0.2020 
      2 C          25.1920   -2.9429   -6.8436 C.2       0 UNK         0.4855 
      3 O          25.0969   -2.0531   -5.9997 O.2       0 UNK        -0.5197 
      4 N          25.4342   -4.2237   -6.5285 N.am      1 UNK        -0.4892 
      5 CA         25.7502   -4.7517   -5.1872 C.3       1 UNK         0.0835 
      6 C6         27.1362   -4.2741   -4.6683 C.3       12 UNK        -0.0855 
      7 S7         28.4752   -4.8531   -5.7674 S.3       12 UNK        -0.2931 
      8 C8         29.7845   -5.2949   -4.5846 C.3       12 UNK         0.0378 
      9 C9         30.5773   -4.0743   -4.1409 C.ar      12 UNK        -0.0802 
     10 C10        31.5434   -3.5282   -4.9918 C.ar      12 UNK        -0.0944 
     11 C11        32.3159   -2.4321   -4.5966 C.ar      12 UNK        -0.0787 
     12 C12        32.1116   -1.8902   -3.3210 C.ar      12 UNK        -0.0862 
     13 C13        31.1438   -2.4193   -2.4620 C.ar      12 UNK        -0.0733 
     14 C14        30.3757   -3.5111   -2.8773 C.ar      12 UNK        -0.0832 
     15 C15        30.9586   -1.8237   -1.0724 C.3       12 UNK         0.0240 
     16 S16        29.4208   -0.8613   -0.9120 S.3       12 UNK        -0.2522 
     17 C17        29.5946    0.4063   -2.2173 C.3       12 UNK        -0.0967 
     18 CA         28.4275    0.3197   -3.2350 C.3       5 UNK         0.0660 
     19 N          27.1133    0.5647   -2.6180 N.am      5 UNK        -0.4015 
     20 C          26.6667    1.6546   -1.9790 C.2       4 UNK         0.4946 
     21 O          27.2853    2.7203   -1.9377 O.2       4 UNK        -0.5353 
     22 CA         25.2931    1.5357   -1.2817 C.3       4 UNK         0.0277 
     23 CB         24.8636    2.8477   -0.5974 C.3       4 UNK        -0.1981 
     24 N          24.2218    1.1024   -2.1853 N.am      4 UNK        -0.4209 
     25 C          24.0681   -0.1361   -2.6702 C.2       3 UNK         0.4942 
     26 O          24.8357   -1.0644   -2.4022 O.2       3 UNK        -0.5208 
     27 CA         22.8940   -0.3463   -3.6397 C.3       3 UNK         0.0250 
     28 CB         23.0785    0.5008   -4.9101 C.3       3 UNK        -0.1990 
     29 N          22.8010   -1.7544   -4.0248 N.am      3 UNK        -0.4232 
     30 C          22.0733   -2.6740   -3.3759 C.2       2 UNK         0.4993 
     31 O          21.3230   -2.4099   -2.4346 O.2       2 UNK        -0.5286 
     32 CA         22.1745   -4.1349   -3.8540 C.3       2 UNK         0.0209 
     33 CB         20.9316   -4.5185   -4.6748 C.3       2 UNK        -0.1931 
     34 N          23.3722   -4.4059   -4.6525 N.am      2 UNK        -0.4546 
     35 C          24.6110   -4.5467   -4.1583 C.2       1 UNK         0.5154 
     36 O          24.8579   -4.5465   -2.9512 O.2       1 UNK        -0.5181 
     37 C          28.7204    1.1656   -4.4932 C.2       5 UNK         0.5014 
     38 O          29.2781    0.6345   -5.4519 O.2       5 UNK        -0.5248 
     39 N          28.3338    2.4469   -4.4935 N.am      6 UNK        -0.4434 
     40 CA         28.6048    3.4392   -5.5406 C.3       6 UNK         0.0363 
     41 CB         28.0930    4.8086   -5.0653 C.3       6 UNK        -0.1936 
     42 C          28.0364    3.1098   -6.9353 C.2       6 UNK         0.5081 
     43 O          28.4883    3.6999   -7.9171 O.2       6 UNK        -0.5248 
     44 N          27.0596    2.1960   -7.0086 N.am      7 UNK        -0.4718 
     45 CA         26.4804    1.7079   -8.2617 C.3       7 UNK         0.0273 
     46 CB         25.0635    1.1803   -7.9912 C.3       7 UNK        -0.1935 
     47 C          27.3300    0.6197   -8.9443 C.2       7 UNK         0.5018 
     48 O          27.0979    0.3493  -10.1238 O.2       7 UNK        -0.5186 
     49 N          28.2684   -0.0067   -8.2170 N.am      8 UNK        -0.4240 
     50 CA         29.1759   -1.0197   -8.7592 C.3       8 UNK         0.0235 
     51 CB         29.8241   -1.7955   -7.6028 C.3       8 UNK        -0.2000 
     52 C          30.2508   -0.3510   -9.6253 C.2       8 UNK         0.4941 
     53 O          30.8086    0.6646   -9.2094 O.2       8 UNK        -0.5273 
     54 N          30.5568   -0.9380  -10.7898 N.am      9 UNK        -0.4262 
     55 CA         31.4579   -0.3723  -11.8060 C.3       9 UNK         0.0264 
     56 CB         31.5168   -1.3214  -13.0143 C.3       9 UNK        -0.1955 
     57 C          32.8818   -0.0383  -11.3181 C.2       9 UNK         0.5031 
     58 O          33.5064    0.8721  -11.8647 O.2       9 UNK        -0.5390 
     59 N          33.3624   -0.7683  -10.3043 N.am      10 UNK        -0.4204 
     60 CA         34.6676   -0.5613   -9.6782 C.3       10 UNK         0.0237 
     61 CB         35.1727   -1.9101   -9.1364 C.3       10 UNK        -0.1985 
     62 C          34.6658    0.4979   -8.5585 C.2       10 UNK         0.4970 
     63 O          35.7546    0.9334   -8.1800 O.2       10 UNK        -0.4914 
     64 N          33.4914    0.8692   -8.0248 N.am      11 UNK        -0.4285 
     65 CA         33.3553    1.7178   -6.8238 C.3       11 UNK         0.1007 
     66 C          32.4336    2.9539   -7.0118 C.2       11 UNK         0.5703 
     67 N          31.5959    3.0225   -8.0356 N.am      11 UNK        -0.7361 
     68 O          32.4980    3.8883   -6.2164 O.2       11 UNK        -0.4986 
     69 C69        32.9302    0.8908   -5.5791 C.3       12 UNK        -0.0947 
     70 S70        34.1892   -0.3388   -5.0961 S.3       12 UNK        -0.2240 
     71 C71        33.3760   -1.9050   -5.5677 C.3       12 UNK         0.0194 
     72 H72        24.0928   -2.0230   -8.4534 H         1 UNK         0.0906 
     73 H73        25.8442   -2.0257   -8.6777 H         1 UNK         0.0906 
     74 H74        24.9194   -3.5075   -8.9288 H         1 UNK         0.0906 
     75 H75        25.4871   -4.9063   -7.2725 H         1 UNK         0.3140 
     76 H76        25.8089   -5.8354   -5.3031 H         1 UNK         0.1085 
     77 H77        27.3239   -4.6516   -3.6619 H         1 UNK         0.0836 
     78 H78        27.1765   -3.1857   -4.5967 H         1 UNK         0.0836 
     79 H79        29.3601   -5.8229   -3.7294 H         1 UNK         0.0731 
     80 H80        30.4614   -6.0024   -5.0661 H         1 UNK         0.0731 
     81 H81        31.6982   -3.9673   -5.9681 H         1 UNK         0.1312 
     82 H82        32.7062   -1.0560   -2.9792 H         1 UNK         0.1406 
     83 H83        29.6315   -3.9262   -2.2111 H         1 UNK         0.1631 
     84 H84        31.8029   -1.1847   -0.8087 H         1 UNK         0.0717 
     85 H85        30.9473   -2.6280   -0.3355 H         1 UNK         0.0717 
     86 H86        29.6304    1.3896   -1.7457 H         1 UNK         0.0934 
     87 H87        30.5553    0.2894   -2.7197 H         1 UNK         0.0934 
     88 H88        28.3835   -0.7122   -3.5898 H         1 UNK         0.0739 
     89 H89        26.4834   -0.2356   -2.6144 H         1 UNK         0.3093 
     90 H90        25.4055    0.7807   -0.5004 H         1 UNK         0.0818 
     91 H91        23.9269    2.7249   -0.0533 H         1 UNK         0.0819 
     92 H92        25.6125    3.1756    0.1250 H         1 UNK         0.0819 
     93 H93        24.7312    3.6553   -1.3185 H         1 UNK         0.0819 
     94 H94        23.5695    1.8169   -2.4754 H         1 UNK         0.3041 
     95 H95        21.9726   -0.0362   -3.1421 H         1 UNK         0.0784 
     96 H96        22.3321    0.2576   -5.6666 H         1 UNK         0.0793 
     97 H97        22.9846    1.5660   -4.6971 H         1 UNK         0.0793 
     98 H98        24.0634    0.3429   -5.3467 H         1 UNK         0.0793 
     99 H99        23.4695   -2.0618   -4.7241 H         1 UNK         0.3024 
    100 H100       22.2041   -4.7637   -2.9609 H         1 UNK         0.1171 
    101 H101       20.8490   -3.9235   -5.5852 H         1 UNK         0.0786 
    102 H102       20.0189   -4.3602   -4.0984 H         1 UNK         0.0786 
    103 H103       20.9530   -5.5705   -4.9602 H         1 UNK         0.0786 
    104 H104       23.2607   -4.4260   -5.6561 H         1 UNK         0.2977 
    105 H105       27.8974    2.7867   -3.6372 H         1 UNK         0.3127 
    106 H106       29.6890    3.4998   -5.6495 H         1 UNK         0.0770 
    107 H107       27.0140    4.8010   -4.9061 H         1 UNK         0.0814 
    108 H108       28.3100    5.5851   -5.8003 H         1 UNK         0.0814 
    109 H109       28.5686    5.1081   -4.1311 H         1 UNK         0.0814 
    110 H110       26.7493    1.7580   -6.1539 H         1 UNK         0.2983 
    111 H111       26.4011    2.5440   -8.9604 H         1 UNK         0.0947 
    112 H112       24.5654    0.9080   -8.9227 H         1 UNK         0.0806 
    113 H113       24.4420    1.9280   -7.4982 H         1 UNK         0.0806 
    114 H114       25.0866    0.2881   -7.3672 H         1 UNK         0.0806 
    115 H115       28.4631    0.3112   -7.2722 H         1 UNK         0.3000 
    116 H116       28.5959   -1.7181   -9.3663 H         1 UNK         0.0850 
    117 H117       30.4903   -1.1640   -7.0142 H         1 UNK         0.0810 
    118 H118       29.0709   -2.1962   -6.9248 H         1 UNK         0.0810 
    119 H119       30.4116   -2.6365   -7.9722 H         1 UNK         0.0810 
    120 H120       30.0672   -1.7832  -11.0480 H         1 UNK         0.3040 
    121 H121       31.0111    0.5680  -12.1359 H         1 UNK         0.0766 
    122 H122       30.5299   -1.4697  -13.4530 H         1 UNK         0.0812 
    123 H123       31.9151   -2.2992  -12.7407 H         1 UNK         0.0812 
    124 H124       32.1583   -0.9166  -13.7986 H         1 UNK         0.0812 
    125 H125       32.7783   -1.4983   -9.9237 H         1 UNK         0.3205 
    126 H126       35.3758   -0.2226  -10.4377 H         1 UNK         0.0754 
    127 H127       36.1541   -1.8038   -8.6716 H         1 UNK         0.0769 
    128 H128       35.2743   -2.6445   -9.9357 H         1 UNK         0.0769 
    129 H129       34.5006   -2.3237   -8.3846 H         1 UNK         0.0769 
    130 H130       32.6222    0.5553   -8.4425 H         1 UNK         0.2981 
    131 H131       34.3267    2.1576   -6.5911 H         1 UNK         0.0541 
    132 H132       30.9932    3.8249   -8.1266 H         1 UNK         0.3459 
    133 H133       31.4194    2.2048   -8.6156 H         1 UNK         0.3459 
    134 H134       31.9747    0.3949   -5.7565 H         1 UNK         0.0612 
    135 H135       32.7752    1.5417   -4.7167 H         1 UNK         0.0612 
    136 H136       32.9337   -1.7834   -6.5572 H         1 UNK         0.0624 
    137 H137       34.1515   -2.6653   -5.6680 H         1 UNK         0.0624 
@<TRIPOS>BOND
     1    1    2 1    
     2    1   72 1    
     3    1   73 1    
     4    1   74 1    
     5    2    3 2    
     6    2    4 am   BACKBONE|DICT|INTERRES
     7    4    5 1    
     8    4   75 1    
     9    5    6 1    
    10    5   35 1    
    11    5   76 1    
    12    6    7 1    
    13    6   77 1    
    14    6   78 1    
    15    7    8 1    
    16    8    9 1    
    17    8   79 1    
    18    8   80 1    
    19    9   10 ar   
    20    9   14 ar   
    21   10   11 ar   
    22   10   81 1    
    23   11   12 ar   
    24   11   71 1    
    25   12   13 ar   
    26   12   82 1    
    27   13   14 ar   
    28   13   15 1    
    29   14   83 1    
    30   15   16 1    
    31   15   84 1    
    32   15   85 1    
    33   16   17 1    
    34   17   18 1    
    35   17   86 1    
    36   17   87 1    
    37   18   19 1    
    38   18   37 1    
    39   18   88 1    
    40   19   20 am   BACKBONE|DICT|INTERRES
    41   19   89 1    
    42   20   21 2    
    43   20   22 1    
    44   22   23 1    
    45   22   24 1    
    46   22   90 1    
    47   23   91 1    
    48   23   92 1    
    49   23   93 1    
    50   24   25 am   BACKBONE|DICT|INTERRES
    51   24   94 1    
    52   25   26 2    
    53   25   27 1    
    54   27   28 1    
    55   27   29 1    
    56   27   95 1    
    57   28   96 1    
    58   28   97 1    
    59   28   98 1    
    60   29   30 am   BACKBONE|DICT|INTERRES
    61   29   99 1    
    62   30   31 2    
    63   30   32 1    
    64   32   33 1    
    65   32   34 1    
    66   32  100 1    
    67   33  101 1    
    68   33  102 1    
    69   33  103 1    
    70   34   35 am   BACKBONE|DICT|INTERRES
    71   34  104 1    
    72   35   36 2    
    73   37   38 2    
    74   37   39 am   BACKBONE|DICT|INTERRES
    75   39   40 1    
    76   39  105 1    
    77   40   41 1    
    78   40   42 1    
    79   40  106 1    
    80   41  107 1    
    81   41  108 1    
    82   41  109 1    
    83   42   43 2    
    84   42   44 am   BACKBONE|DICT|INTERRES
    85   44   45 1    
    86   44  110 1    
    87   45   46 1    
    88   45   47 1    
    89   45  111 1    
    90   46  112 1    
    91   46  113 1    
    92   46  114 1    
    93   47   48 2    
    94   47   49 am   BACKBONE|DICT|INTERRES
    95   49   50 1    
    96   49  115 1    
    97   50   51 1    
    98   50   52 1    
    99   50  116 1    
   100   51  117 1    
   101   51  118 1    
   102   51  119 1    
   103   52   53 2    
   104   52   54 am   BACKBONE|DICT|INTERRES
   105   54   55 1    
   106   54  120 1    
   107   55   56 1    
   108   55   57 1    
   109   55  121 1    
   110   56  122 1    
   111   56  123 1    
   112   56  124 1    
   113   57   58 2    
   114   57   59 am   BACKBONE|DICT|INTERRES
   115   59   60 1    
   116   59  125 1    
   117   60   61 1    
   118   60   62 1    
   119   60  126 1    
   120   61  127 1    
   121   61  128 1    
   122   61  129 1    
   123   62   63 2    
   124   62   64 am   BACKBONE|DICT|INTERRES
   125   64   65 1    
   126   64  130 1    
   127   65   66 1    
   128   65   69 1    
   129   65  131 1    
   130   66   67 am   BACKBONE|DICT|INTERRES
   131   66   68 2    
   132   67  132 1    
   133   67  133 1    
   134   69   70 1    
   135   69  134 1    
   136   69  135 1    
   137   70   71 1    
   138   71  136 1    
   139   71  137 1    
@<TRIPOS>SUBSTRUCTURE
     1 UNK         1 GROUP             0       ****    0 ROOT    
