@<TRIPOS>MOLECULE
3R137
137   139    1
SMALL
USER_CHARGES


@<TRIPOS>ATOM
      1 CA         25.2680   -6.5491   -5.1222 C.3       0 UNK        -0.2020 
      2 C          25.2350   -5.7683   -3.8175 C.2       0 UNK         0.4855 
      3 O          24.1970   -5.2087   -3.4615 O.2       0 UNK        -0.5197 
      4 N          26.3693   -5.7276   -3.1077 N.am      1 UNK        -0.4892 
      5 CA         26.5954   -5.0159   -1.8443 C.3       1 UNK         0.0835 
      6 C6         28.0155   -5.2832   -1.2673 C.3       12 UNK        -0.0855 
      7 S7         29.3592   -5.3799   -2.5112 S.3       12 UNK        -0.2931 
      8 C8         30.7772   -4.6816   -1.6096 C.3       12 UNK         0.0378 
      9 C9         30.9700   -3.2061   -1.9235 C.ar      12 UNK        -0.0802 
     10 C10        31.8479   -2.8137   -2.9383 C.ar      12 UNK        -0.0944 
     11 C11        32.0476   -1.4586   -3.2172 C.ar      12 UNK        -0.0787 
     12 C12        31.3494   -0.4918   -2.4881 C.ar      12 UNK        -0.0862 
     13 C13        30.4640   -0.8723   -1.4773 C.ar      12 UNK        -0.0733 
     14 C14        30.2872   -2.2309   -1.1926 C.ar      12 UNK        -0.0832 
     15 C15        29.7072    0.1770   -0.6786 C.3       12 UNK         0.0240 
     16 S16        27.9139   -0.0289   -0.8777 S.3       12 UNK        -0.2522 
     17 C17        27.4440    1.3567   -1.9604 C.3       12 UNK        -0.0967 
     18 CA         27.9144    1.2857   -3.4411 C.3       5 UNK         0.0660 
     19 N          27.7745   -0.0372   -4.0662 N.am      5 UNK        -0.4015 
     20 C          28.1269   -0.3298   -5.3318 C.2       4 UNK         0.4946 
     21 O          28.6571    0.4658   -6.1099 O.2       4 UNK        -0.5353 
     22 CA         27.7485   -1.7233   -5.8524 C.3       4 UNK         0.0277 
     23 CB         28.7760   -2.7797   -5.4134 C.3       4 UNK        -0.1981 
     24 N          26.3973   -2.0973   -5.4270 N.am      4 UNK        -0.4209 
     25 C          25.2822   -1.5394   -5.9274 C.2       3 UNK         0.4942 
     26 O          25.2872   -0.7151   -6.8392 O.2       3 UNK        -0.5208 
     27 CA         23.9349   -1.9144   -5.2877 C.3       3 UNK         0.0250 
     28 CB         23.2976   -3.1080   -6.0142 C.3       3 UNK        -0.1990 
     29 N          24.0435   -2.1943   -3.8559 N.am      3 UNK        -0.4232 
     30 C          24.3491   -1.2633   -2.9389 C.2       2 UNK         0.4993 
     31 O          24.5059   -0.0709   -3.2051 O.2       2 UNK        -0.5286 
     32 CA         24.5699   -1.7458   -1.4942 C.3       2 UNK         0.0209 
     33 CB         23.2552   -1.6790   -0.7015 C.3       2 UNK        -0.1931 
     34 N          25.1315   -3.0985   -1.3945 N.am      2 UNK        -0.4546 
     35 C          26.2699   -3.5132   -1.9718 C.2       1 UNK         0.5154 
     36 O          26.9981   -2.7804   -2.6411 O.2       1 UNK        -0.5181 
     37 C          27.1734    2.3749   -4.2455 C.2       5 UNK         0.5014 
     38 O          27.7406    3.4379   -4.5020 O.2       5 UNK        -0.5248 
     39 N          25.9174    2.0810   -4.6165 N.am      6 UNK        -0.4434 
     40 CA         25.0512    2.9543   -5.4070 C.3       6 UNK         0.0363 
     41 CB         23.6158    2.4045   -5.3882 C.3       6 UNK        -0.1936 
     42 C          25.5387    3.1438   -6.8525 C.2       6 UNK         0.5081 
     43 O          25.4987    4.2682   -7.3533 O.2       6 UNK        -0.5248 
     44 N          25.9716    2.0532   -7.5023 N.am      7 UNK        -0.4718 
     45 CA         26.4523    2.0605   -8.8852 C.3       7 UNK         0.0273 
     46 CB         26.5641    0.6216   -9.4155 C.3       7 UNK        -0.1935 
     47 C          27.7886    2.7933   -9.0586 C.2       7 UNK         0.5018 
     48 O          27.9294    3.5499  -10.0205 O.2       7 UNK        -0.5186 
     49 N          28.7536    2.5242   -8.1639 N.am      8 UNK        -0.4240 
     50 CA         30.1411    3.0198   -8.1313 C.3       8 UNK         0.0235 
     51 CB         30.1931    4.5498   -7.9639 C.3       8 UNK        -0.2000 
     52 C          31.0178    2.5574   -9.3127 C.2       8 UNK         0.4941 
     53 O          32.1541    2.1388   -9.0938 O.2       8 UNK        -0.5273 
     54 N          30.4732    2.5709  -10.5361 N.am      9 UNK        -0.4262 
     55 CA         31.0817    2.0322  -11.7580 C.3       9 UNK         0.0264 
     56 CB         30.1983    2.3959  -12.9619 C.3       9 UNK        -0.1955 
     57 C          31.3227    0.5110  -11.7045 C.2       9 UNK         0.5031 
     58 O          32.1998    0.0134  -12.4109 O.2       9 UNK        -0.5390 
     59 N          30.5637   -0.1910  -10.8500 N.am      10 UNK        -0.4204 
     60 CA         30.7720   -1.5949  -10.4913 C.3       10 UNK         0.0237 
     61 CB         29.5574   -2.0911   -9.6882 C.3       10 UNK        -0.1985 
     62 C          32.0677   -1.8200   -9.6884 C.2       10 UNK         0.4970 
     63 O          32.6662   -2.8901   -9.8038 O.2       10 UNK        -0.4914 
     64 N          32.4685   -0.8191   -8.8950 N.am      11 UNK        -0.4285 
     65 CA         33.7074   -0.8090   -8.1090 C.3       11 UNK         0.1007 
     66 C          34.9049   -0.3093   -8.9562 C.2       11 UNK         0.5703 
     67 N          34.7460    0.7778   -9.7026 N.am      11 UNK        -0.7361 
     68 O          35.9766   -0.9099   -8.9383 O.2       11 UNK        -0.4986 
     69 C69        33.5653    0.0415   -6.8206 C.3       12 UNK        -0.0947 
     70 S70        32.1589   -0.4769   -5.7843 S.3       12 UNK        -0.2240 
     71 C71        33.0294   -1.0321   -4.2935 C.3       12 UNK         0.0194 
     72 H72        26.0573   -7.3007   -5.1194 H         1 UNK         0.0906 
     73 H73        24.3189   -7.0604   -5.2816 H         1 UNK         0.0906 
     74 H74        25.4403   -5.8768   -5.9619 H         1 UNK         0.0906 
     75 H75        27.2004   -6.1682   -3.4788 H         1 UNK         0.3140 
     76 H76        25.8850   -5.4351   -1.1283 H         1 UNK         0.1085 
     77 H77        28.0073   -6.2421   -0.7467 H         1 UNK         0.0836 
     78 H78        28.2657   -4.5472   -0.5013 H         1 UNK         0.0836 
     79 H79        31.6727   -5.2377   -1.8912 H         1 UNK         0.0731 
     80 H80        30.6588   -4.8331   -0.5356 H         1 UNK         0.0731 
     81 H81        32.3810   -3.5638   -3.5063 H         1 UNK         0.1312 
     82 H82        31.4988    0.5558   -2.7116 H         1 UNK         0.1406 
     83 H83        29.6032   -2.5261   -0.4093 H         1 UNK         0.1631 
     84 H84        30.0052    1.1872   -0.9630 H         1 UNK         0.0717 
     85 H85        29.9589    0.0666    0.3770 H         1 UNK         0.0717 
     86 H86        26.3547    1.4098   -1.9061 H         1 UNK         0.0934 
     87 H87        27.7997    2.2819   -1.5026 H         1 UNK         0.0934 
     88 H88        28.9796    1.5237   -3.4684 H         1 UNK         0.0739 
     89 H89        27.3886   -0.7735   -3.4854 H         1 UNK         0.3093 
     90 H90        27.7564   -1.6877   -6.9435 H         1 UNK         0.0818 
     91 H91        29.7527   -2.5689   -5.8506 H         1 UNK         0.0819 
     92 H92        28.9132   -2.7979   -4.3320 H         1 UNK         0.0819 
     93 H93        28.4853   -3.7804   -5.7323 H         1 UNK         0.0819 
     94 H94        26.3333   -2.6853   -4.6040 H         1 UNK         0.3041 
     95 H95        23.2674   -1.0582   -5.4061 H         1 UNK         0.0784 
     96 H96        23.1374   -2.8791   -7.0687 H         1 UNK         0.0793 
     97 H97        23.9284   -3.9943   -5.9679 H         1 UNK         0.0793 
     98 H98        22.3278   -3.3631   -5.5865 H         1 UNK         0.0793 
     99 H99        23.9614   -3.1646   -3.5663 H         1 UNK         0.3024 
    100 H100       25.2786   -1.0595   -1.0311 H         1 UNK         0.1171 
    101 H101       23.4129   -1.9171    0.3506 H         1 UNK         0.0786 
    102 H102       22.8256   -0.6769   -0.7434 H         1 UNK         0.0786 
    103 H103       22.5096   -2.3705   -1.0961 H         1 UNK         0.0786 
    104 H104       24.5663   -3.7784   -0.9062 H         1 UNK         0.2977 
    105 H105       25.5088    1.2068   -4.2943 H         1 UNK         0.3127 
    106 H106       25.0445    3.9357   -4.9281 H         1 UNK         0.0770 
    107 H107       23.5578    1.4140   -5.8407 H         1 UNK         0.0814 
    108 H108       22.9405    3.0573   -5.9428 H         1 UNK         0.0814 
    109 H109       23.2326    2.3295   -4.3704 H         1 UNK         0.0814 
    110 H110       25.9144    1.1471   -7.0456 H         1 UNK         0.2983 
    111 H111       25.7116    2.5853   -9.4929 H         1 UNK         0.0947 
    112 H112       26.9387    0.6064  -10.4400 H         1 UNK         0.0806 
    113 H113       25.5924    0.1277   -9.4220 H         1 UNK         0.0806 
    114 H114       27.2398    0.0183   -8.8082 H         1 UNK         0.0806 
    115 H115       28.5366    1.8518   -7.4290 H         1 UNK         0.3000 
    116 H116       30.5794    2.5786   -7.2340 H         1 UNK         0.0850 
    117 H117       31.2212    4.8913   -7.8365 H         1 UNK         0.0810 
    118 H118       29.6336    4.8681   -7.0839 H         1 UNK         0.0810 
    119 H119       29.7833    5.0722   -8.8288 H         1 UNK         0.0810 
    120 H120       29.5350    2.9607  -10.6135 H         1 UNK         0.3040 
    121 H121       32.0544    2.5122  -11.8838 H         1 UNK         0.0766 
    122 H122       30.0881    3.4760  -13.0609 H         1 UNK         0.0812 
    123 H123       29.2006    1.9634  -12.8760 H         1 UNK         0.0812 
    124 H124       30.6349    2.0294  -13.8922 H         1 UNK         0.0812 
    125 H125       29.8535    0.3085  -10.3370 H         1 UNK         0.3205 
    126 H126       30.8429   -2.1761  -11.4131 H         1 UNK         0.0754 
    127 H127       29.6655   -3.1454   -9.4292 H         1 UNK         0.0769 
    128 H128       28.6338   -1.9923  -10.2590 H         1 UNK         0.0769 
    129 H129       29.4389   -1.5383   -8.7552 H         1 UNK         0.0769 
    130 H130       31.9613    0.0554   -8.8996 H         1 UNK         0.2981 
    131 H131       33.9307   -1.8319   -7.7992 H         1 UNK         0.0541 
    132 H132       33.8745    1.2954   -9.6597 H         1 UNK         0.3459 
    133 H133       35.5115    1.1149  -10.2637 H         1 UNK         0.3459 
    134 H134       34.4859   -0.0085   -6.2363 H         1 UNK         0.0612 
    135 H135       33.4240    1.0958   -7.0614 H         1 UNK         0.0612 
    136 H136       33.6544   -0.2222   -3.9141 H         1 UNK         0.0624 
    137 H137       33.7010   -1.8519   -4.5531 H         1 UNK         0.0624 
@<TRIPOS>BOND
     1    1    2 1    
     2    1   72 1    
     3    1   73 1    
     4    1   74 1    
     5    2    3 2    
     6    2    4 am   BACKBONE|DICT|INTERRES
     7    4    5 1    
     8    4   75 1    
     9    5    6 1    
    10    5   35 1    
    11    5   76 1    
    12    6    7 1    
    13    6   77 1    
    14    6   78 1    
    15    7    8 1    
    16    8    9 1    
    17    8   79 1    
    18    8   80 1    
    19    9   10 ar   
    20    9   14 ar   
    21   10   11 ar   
    22   10   81 1    
    23   11   12 ar   
    24   11   71 1    
    25   12   13 ar   
    26   12   82 1    
    27   13   14 ar   
    28   13   15 1    
    29   14   83 1    
    30   15   16 1    
    31   15   84 1    
    32   15   85 1    
    33   16   17 1    
    34   17   18 1    
    35   17   86 1    
    36   17   87 1    
    37   18   19 1    
    38   18   37 1    
    39   18   88 1    
    40   19   20 am   BACKBONE|DICT|INTERRES
    41   19   89 1    
    42   20   21 2    
    43   20   22 1    
    44   22   23 1    
    45   22   24 1    
    46   22   90 1    
    47   23   91 1    
    48   23   92 1    
    49   23   93 1    
    50   24   25 am   BACKBONE|DICT|INTERRES
    51   24   94 1    
    52   25   26 2    
    53   25   27 1    
    54   27   28 1    
    55   27   29 1    
    56   27   95 1    
    57   28   96 1    
    58   28   97 1    
    59   28   98 1    
    60   29   30 am   BACKBONE|DICT|INTERRES
    61   29   99 1    
    62   30   31 2    
    63   30   32 1    
    64   32   33 1    
    65   32   34 1    
    66   32  100 1    
    67   33  101 1    
    68   33  102 1    
    69   33  103 1    
    70   34   35 am   BACKBONE|DICT|INTERRES
    71   34  104 1    
    72   35   36 2    
    73   37   38 2    
    74   37   39 am   BACKBONE|DICT|INTERRES
    75   39   40 1    
    76   39  105 1    
    77   40   41 1    
    78   40   42 1    
    79   40  106 1    
    80   41  107 1    
    81   41  108 1    
    82   41  109 1    
    83   42   43 2    
    84   42   44 am   BACKBONE|DICT|INTERRES
    85   44   45 1    
    86   44  110 1    
    87   45   46 1    
    88   45   47 1    
    89   45  111 1    
    90   46  112 1    
    91   46  113 1    
    92   46  114 1    
    93   47   48 2    
    94   47   49 am   BACKBONE|DICT|INTERRES
    95   49   50 1    
    96   49  115 1    
    97   50   51 1    
    98   50   52 1    
    99   50  116 1    
   100   51  117 1    
   101   51  118 1    
   102   51  119 1    
   103   52   53 2    
   104   52   54 am   BACKBONE|DICT|INTERRES
   105   54   55 1    
   106   54  120 1    
   107   55   56 1    
   108   55   57 1    
   109   55  121 1    
   110   56  122 1    
   111   56  123 1    
   112   56  124 1    
   113   57   58 2    
   114   57   59 am   BACKBONE|DICT|INTERRES
   115   59   60 1    
   116   59  125 1    
   117   60   61 1    
   118   60   62 1    
   119   60  126 1    
   120   61  127 1    
   121   61  128 1    
   122   61  129 1    
   123   62   63 2    
   124   62   64 am   BACKBONE|DICT|INTERRES
   125   64   65 1    
   126   64  130 1    
   127   65   66 1    
   128   65   69 1    
   129   65  131 1    
   130   66   67 am   BACKBONE|DICT|INTERRES
   131   66   68 2    
   132   67  132 1    
   133   67  133 1    
   134   69   70 1    
   135   69  134 1    
   136   69  135 1    
   137   70   71 1    
   138   71  136 1    
   139   71  137 1    
@<TRIPOS>SUBSTRUCTURE
     1 UNK         1 GROUP             0       ****    0 ROOT    
