@<TRIPOS>MOLECULE
3R137
137   139    1
SMALL
USER_CHARGES


@<TRIPOS>ATOM
      1 CA         26.5258   -1.4022    2.3324 C.3       0 UNK        -0.2020 
      2 C          27.9248   -1.4737    1.7392 C.2       0 UNK         0.4855 
      3 O          28.6808   -0.5069    1.8329 O.2       0 UNK        -0.5197 
      4 N          28.2738   -2.6103    1.1229 N.am      1 UNK        -0.4892 
      5 CA         29.5621   -2.8498    0.4556 C.3       1 UNK         0.0835 
      6 C6         29.8289   -4.3656    0.2694 C.3       12 UNK        -0.0855 
      7 S7         28.5095   -5.2565   -0.6378 S.3       12 UNK        -0.2931 
      8 C8         29.4578   -6.1996   -1.8752 C.3       12 UNK         0.0378 
      9 C9         29.6228   -5.4431   -3.1871 C.ar      12 UNK        -0.0802 
     10 C10        30.6774   -4.5421   -3.3615 C.ar      12 UNK        -0.0944 
     11 C11        30.8597   -3.8838   -4.5824 C.ar      12 UNK        -0.0787 
     12 C12        29.9867   -4.1499   -5.6413 C.ar      12 UNK        -0.0862 
     13 C13        28.9192   -5.0383   -5.4771 C.ar      12 UNK        -0.0733 
     14 C14        28.7402   -5.6779   -4.2466 C.ar      12 UNK        -0.0832 
     15 C15        27.9685   -5.3214   -6.6325 C.3       12 UNK         0.0240 
     16 S16        26.4952   -4.2528   -6.5795 S.3       12 UNK        -0.2522 
     17 C17        27.2421   -2.6273   -6.9267 C.3       12 UNK        -0.0967 
     18 CA         26.2198   -1.5788   -7.4241 C.3       5 UNK         0.0660 
     19 N          25.1106   -1.3692   -6.4891 N.am      5 UNK        -0.4015 
     20 C          23.9557   -0.7714   -6.8210 C.2       4 UNK         0.4946 
     21 O          23.7101   -0.3552   -7.9543 O.2       4 UNK        -0.5353 
     22 CA         22.8951   -0.5812   -5.7195 C.3       4 UNK         0.0277 
     23 CB         21.8164   -1.6718   -5.8230 C.3       4 UNK        -0.1981 
     24 N          23.4305   -0.5635   -4.3557 N.am      4 UNK        -0.4209 
     25 C          24.2985    0.3378   -3.8768 C.2       3 UNK         0.4942 
     26 O          24.7472    1.2717   -4.5427 O.2       3 UNK        -0.5208 
     27 CA         24.7959    0.1453   -2.4302 C.3       3 UNK         0.0250 
     28 CB         24.0783   -0.9831   -1.6532 C.3       3 UNK        -0.1990 
     29 N          26.2482   -0.0602   -2.3795 N.am      3 UNK        -0.4232 
     30 C          26.9584   -0.9677   -3.0683 C.2       2 UNK         0.4993 
     31 O          26.4691   -1.7699   -3.8623 O.2       2 UNK        -0.5286 
     32 CA         28.4551   -1.0240   -2.7616 C.3       2 UNK         0.0209 
     33 CB         29.1206    0.3689   -2.8044 C.3       2 UNK        -0.1931 
     34 N          28.5892   -1.6548   -1.4546 N.am      2 UNK        -0.4546 
     35 C          29.7170   -2.0809   -0.8752 C.2       1 UNK         0.5154 
     36 O          30.8443   -1.9041   -1.3382 O.2       1 UNK        -0.5181 
     37 C          26.9543   -0.2697   -7.7685 C.2       5 UNK         0.5014 
     38 O          27.5859   -0.2153   -8.8236 O.2       5 UNK        -0.5248 
     39 N          26.8667    0.7597   -6.9086 N.am      6 UNK        -0.4434 
     40 CA         27.5951    2.0313   -7.0301 C.3       6 UNK         0.0363 
     41 CB         27.3260    2.8902   -5.7840 C.3       6 UNK        -0.1936 
     42 C          27.2947    2.8413   -8.3065 C.2       6 UNK         0.5081 
     43 O          28.0653    3.7390   -8.6461 O.2       6 UNK        -0.5248 
     44 N          26.1965    2.5117   -8.9982 N.am      7 UNK        -0.4718 
     45 CA         25.8401    3.0532  -10.3091 C.3       7 UNK         0.0273 
     46 CB         24.3663    2.7206  -10.5946 C.3       7 UNK        -0.1935 
     47 C          26.7378    2.5446  -11.4559 C.2       7 UNK         0.5018 
     48 O          26.7407    3.1717  -12.5165 O.2       7 UNK        -0.5186 
     49 N          27.4558    1.4295  -11.2504 N.am      8 UNK        -0.4240 
     50 CA         28.2963    0.7873  -12.2651 C.3       8 UNK         0.0235 
     51 CB         27.5636   -0.4424  -12.8289 C.3       8 UNK        -0.2000 
     52 C          29.6830    0.3930  -11.7354 C.2       8 UNK         0.4941 
     53 O          30.6628    0.5428  -12.4675 O.2       8 UNK        -0.5273 
     54 N          29.7561   -0.1250  -10.5027 N.am      9 UNK        -0.4262 
     55 CA         30.9927   -0.5797   -9.8682 C.3       9 UNK         0.0264 
     56 CB         30.6459   -1.5455   -8.7232 C.3       9 UNK        -0.1955 
     57 C          31.8205    0.5986   -9.3374 C.2       9 UNK         0.5031 
     58 O          31.2558    1.5957   -8.8799 O.2       9 UNK        -0.5390 
     59 N          33.1499    0.4285   -9.3457 N.am      10 UNK        -0.4204 
     60 CA         34.1365    1.4083   -8.8726 C.3       10 UNK         0.0237 
     61 CB         35.5500    0.8979   -9.1987 C.3       10 UNK        -0.1985 
     62 C          34.0240    1.7603   -7.3767 C.2       10 UNK         0.4970 
     63 O          34.4913    2.8277   -6.9776 O.2       10 UNK        -0.4914 
     64 N          33.4022    0.8761   -6.5861 N.am      11 UNK        -0.4285 
     65 CA         33.0332    1.1169   -5.1857 C.3       11 UNK         0.1007 
     66 C          31.8810    2.1469   -4.9798 C.2       11 UNK         0.5703 
     67 N          31.1527    2.5572   -6.0130 N.am      11 UNK        -0.7361 
     68 O          31.6622    2.6019   -3.8600 O.2       11 UNK        -0.4986 
     69 C69        32.7854   -0.2137   -4.4283 C.3       12 UNK        -0.0947 
     70 S70        31.4141   -1.2148   -5.1023 S.3       12 UNK        -0.2240 
     71 C71        32.0096   -2.9006   -4.7584 C.3       12 UNK         0.0194 
     72 H72        26.5822   -1.2169    3.4047 H         1 UNK         0.0906 
     73 H73        25.9654   -0.5873    1.8747 H         1 UNK         0.0906 
     74 H74        25.9683   -2.3258    2.1771 H         1 UNK         0.0906 
     75 H75        27.6204   -3.3810    1.0762 H         1 UNK         0.3140 
     76 H76        30.3448   -2.4626    1.1124 H         1 UNK         0.1085 
     77 H77        30.7944   -4.5221   -0.2145 H         1 UNK         0.0836 
     78 H78        29.9239   -4.8347    1.2499 H         1 UNK         0.0836 
     79 H79        30.4327   -6.4795   -1.4733 H         1 UNK         0.0731 
     80 H80        28.9363   -7.1404   -2.0587 H         1 UNK         0.0731 
     81 H81        31.3600   -4.3533   -2.5448 H         1 UNK         0.1312 
     82 H82        30.1337   -3.6524   -6.5897 H         1 UNK         0.1406 
     83 H83        27.9181   -6.3692   -4.1186 H         1 UNK         0.1631 
     84 H84        27.6468   -6.3633   -6.5973 H         1 UNK         0.0717 
     85 H85        28.4788   -5.1958   -7.5887 H         1 UNK         0.0717 
     86 H86        27.7568   -2.2800   -6.0293 H         1 UNK         0.0934 
     87 H87        28.0166   -2.7709   -7.6820 H         1 UNK         0.0934 
     88 H88        25.7951   -1.9532   -8.3583 H         1 UNK         0.0739 
     89 H89        25.2750   -1.6672   -5.5319 H         1 UNK         0.3093 
     90 H90        22.4210    0.3866   -5.8964 H         1 UNK         0.0818 
     91 H91        21.0053   -1.4984   -5.1155 H         1 UNK         0.0819 
     92 H92        21.3741   -1.6899   -6.8203 H         1 UNK         0.0819 
     93 H93        22.2261   -2.6644   -5.6309 H         1 UNK         0.0819 
     94 H94        23.1417   -1.3143   -3.7454 H         1 UNK         0.3041 
     95 H95        24.5934    1.0850   -1.9141 H         1 UNK         0.0784 
     96 H96        23.0000   -0.8207   -1.6207 H         1 UNK         0.0793 
     97 H97        24.2591   -1.9663   -2.0900 H         1 UNK         0.0793 
     98 H98        24.4212   -1.0200   -0.6191 H         1 UNK         0.0793 
     99 H99        26.7544    0.5682   -1.7717 H         1 UNK         0.3024 
    100 H100       28.9271   -1.6711   -3.5043 H         1 UNK         0.1171 
    101 H101       30.1979    0.2992   -2.6595 H         1 UNK         0.0786 
    102 H102       28.7350    1.0435   -2.0401 H         1 UNK         0.0786 
    103 H103       28.9697    0.8393   -3.7759 H         1 UNK         0.0786 
    104 H104       27.7194   -1.8840   -0.9935 H         1 UNK         0.2977 
    105 H105       26.2719    0.6635   -6.0938 H         1 UNK         0.3127 
    106 H106       28.6582    1.7846   -7.0573 H         1 UNK         0.0770 
    107 H107       26.2799    3.1935   -5.7264 H         1 UNK         0.0814 
    108 H108       27.9267    3.8004   -5.7986 H         1 UNK         0.0814 
    109 H109       27.5681    2.3573   -4.8657 H         1 UNK         0.0814 
    110 H110       25.6155    1.7664   -8.6396 H         1 UNK         0.2983 
    111 H111       25.9469    4.1397  -10.2717 H         1 UNK         0.0947 
    112 H112       24.0515    3.1292  -11.5559 H         1 UNK         0.0806 
    113 H113       23.7092    3.1433   -9.8343 H         1 UNK         0.0806 
    114 H114       24.1945    1.6436  -10.6254 H         1 UNK         0.0806 
    115 H115       27.4141    0.9826  -10.3390 H         1 UNK         0.3000 
    116 H116       28.4737    1.4794  -13.0912 H         1 UNK         0.0850 
    117 H117       28.1698   -0.9493  -13.5811 H         1 UNK         0.0810 
    118 H118       26.6257   -0.1586  -13.3065 H         1 UNK         0.0810 
    119 H119       27.3353   -1.1684  -12.0474 H         1 UNK         0.0810 
    120 H120       28.9168   -0.1833   -9.9274 H         1 UNK         0.3040 
    121 H121       31.5817   -1.1225  -10.6109 H         1 UNK         0.0766 
    122 H122       31.5474   -1.9536   -8.2646 H         1 UNK         0.0812 
    123 H123       30.0569   -2.3892   -9.0826 H         1 UNK         0.0812 
    124 H124       30.0771   -1.0483   -7.9362 H         1 UNK         0.0812 
    125 H125       33.5223   -0.4305   -9.7257 H         1 UNK         0.3205 
    126 H126       33.9695    2.3325   -9.4298 H         1 UNK         0.0754 
    127 H127       36.3076    1.6190   -8.8880 H         1 UNK         0.0769 
    128 H128       35.6788    0.7396  -10.2697 H         1 UNK         0.0769 
    129 H129       35.7675   -0.0422   -8.6899 H         1 UNK         0.0769 
    130 H130       33.0382    0.0297   -6.9952 H         1 UNK         0.2981 
    131 H131       33.9039    1.5761   -4.7135 H         1 UNK         0.0541 
    132 H132       31.3129    2.1978   -6.9481 H         1 UNK         0.3459 
    133 H133       30.4343    3.2440   -5.8578 H         1 UNK         0.3459 
    134 H134       32.5861   -0.0255   -3.3718 H         1 UNK         0.0612 
    135 H135       33.6998   -0.8083   -4.4528 H         1 UNK         0.0612 
    136 H136       32.6540   -3.2288   -5.5748 H         1 UNK         0.0624 
    137 H137       32.6270   -2.8851   -3.8587 H         1 UNK         0.0624 
@<TRIPOS>BOND
     1    1    2 1    
     2    1   72 1    
     3    1   73 1    
     4    1   74 1    
     5    2    3 2    
     6    2    4 am   BACKBONE|DICT|INTERRES
     7    4    5 1    
     8    4   75 1    
     9    5    6 1    
    10    5   35 1    
    11    5   76 1    
    12    6    7 1    
    13    6   77 1    
    14    6   78 1    
    15    7    8 1    
    16    8    9 1    
    17    8   79 1    
    18    8   80 1    
    19    9   10 ar   
    20    9   14 ar   
    21   10   11 ar   
    22   10   81 1    
    23   11   12 ar   
    24   11   71 1    
    25   12   13 ar   
    26   12   82 1    
    27   13   14 ar   
    28   13   15 1    
    29   14   83 1    
    30   15   16 1    
    31   15   84 1    
    32   15   85 1    
    33   16   17 1    
    34   17   18 1    
    35   17   86 1    
    36   17   87 1    
    37   18   19 1    
    38   18   37 1    
    39   18   88 1    
    40   19   20 am   BACKBONE|DICT|INTERRES
    41   19   89 1    
    42   20   21 2    
    43   20   22 1    
    44   22   23 1    
    45   22   24 1    
    46   22   90 1    
    47   23   91 1    
    48   23   92 1    
    49   23   93 1    
    50   24   25 am   BACKBONE|DICT|INTERRES
    51   24   94 1    
    52   25   26 2    
    53   25   27 1    
    54   27   28 1    
    55   27   29 1    
    56   27   95 1    
    57   28   96 1    
    58   28   97 1    
    59   28   98 1    
    60   29   30 am   BACKBONE|DICT|INTERRES
    61   29   99 1    
    62   30   31 2    
    63   30   32 1    
    64   32   33 1    
    65   32   34 1    
    66   32  100 1    
    67   33  101 1    
    68   33  102 1    
    69   33  103 1    
    70   34   35 am   BACKBONE|DICT|INTERRES
    71   34  104 1    
    72   35   36 2    
    73   37   38 2    
    74   37   39 am   BACKBONE|DICT|INTERRES
    75   39   40 1    
    76   39  105 1    
    77   40   41 1    
    78   40   42 1    
    79   40  106 1    
    80   41  107 1    
    81   41  108 1    
    82   41  109 1    
    83   42   43 2    
    84   42   44 am   BACKBONE|DICT|INTERRES
    85   44   45 1    
    86   44  110 1    
    87   45   46 1    
    88   45   47 1    
    89   45  111 1    
    90   46  112 1    
    91   46  113 1    
    92   46  114 1    
    93   47   48 2    
    94   47   49 am   BACKBONE|DICT|INTERRES
    95   49   50 1    
    96   49  115 1    
    97   50   51 1    
    98   50   52 1    
    99   50  116 1    
   100   51  117 1    
   101   51  118 1    
   102   51  119 1    
   103   52   53 2    
   104   52   54 am   BACKBONE|DICT|INTERRES
   105   54   55 1    
   106   54  120 1    
   107   55   56 1    
   108   55   57 1    
   109   55  121 1    
   110   56  122 1    
   111   56  123 1    
   112   56  124 1    
   113   57   58 2    
   114   57   59 am   BACKBONE|DICT|INTERRES
   115   59   60 1    
   116   59  125 1    
   117   60   61 1    
   118   60   62 1    
   119   60  126 1    
   120   61  127 1    
   121   61  128 1    
   122   61  129 1    
   123   62   63 2    
   124   62   64 am   BACKBONE|DICT|INTERRES
   125   64   65 1    
   126   64  130 1    
   127   65   66 1    
   128   65   69 1    
   129   65  131 1    
   130   66   67 am   BACKBONE|DICT|INTERRES
   131   66   68 2    
   132   67  132 1    
   133   67  133 1    
   134   69   70 1    
   135   69  134 1    
   136   69  135 1    
   137   70   71 1    
   138   71  136 1    
   139   71  137 1    
@<TRIPOS>SUBSTRUCTURE
     1 UNK         1 GROUP             0       ****    0 ROOT    
