@<TRIPOS>MOLECULE
3R137
137   139    1
SMALL
USER_CHARGES


@<TRIPOS>ATOM
      1 CA         26.1287   -5.6387    1.3903 C.3       0 UNK        -0.2020 
      2 C          27.3121   -5.4008    0.4565 C.2       0 UNK         0.4855 
      3 O          27.8600   -6.3601   -0.0817 O.2       0 UNK        -0.5197 
      4 N          27.7502   -4.1543    0.2296 N.am      1 UNK        -0.4892 
      5 CA         27.1853   -2.8979    0.7442 C.3       1 UNK         0.0835 
      6 C6         28.2293   -1.7496    0.6858 C.3       12 UNK        -0.0855 
      7 S7         28.6883   -1.2346   -1.0081 S.3       12 UNK        -0.2931 
      8 C8         30.2202   -2.1682   -1.2950 C.3       12 UNK         0.0378 
      9 C9         30.4160   -2.4001   -2.7837 C.ar      12 UNK        -0.0802 
     10 C10        31.1592   -1.4957   -3.5452 C.ar      12 UNK        -0.0944 
     11 C11        31.3248   -1.6938   -4.9186 C.ar      12 UNK        -0.0787 
     12 C12        30.7523   -2.8168   -5.5268 C.ar      12 UNK        -0.0862 
     13 C13        29.9988   -3.7263   -4.7761 C.ar      12 UNK        -0.0733 
     14 C14        29.8361   -3.5108   -3.4042 C.ar      12 UNK        -0.0832 
     15 C15        29.3837   -4.9620   -5.4268 C.3       12 UNK         0.0240 
     16 S16        28.2782   -4.5902   -6.8297 S.3       12 UNK        -0.2522 
     17 C17        26.9424   -3.6127   -6.0558 C.3       12 UNK        -0.0967 
     18 CA         26.5728   -2.3736   -6.9099 C.3       5 UNK         0.0660 
     19 N          25.2651   -1.8124   -6.5582 N.am      5 UNK        -0.4015 
     20 C          24.5949   -0.9304   -7.3174 C.2       4 UNK         0.4946 
     21 O          24.9839   -0.5375   -8.4160 O.2       4 UNK        -0.5353 
     22 CA         23.2900   -0.3533   -6.7436 C.3       4 UNK         0.0277 
     23 CB         22.1166   -1.3149   -6.9899 C.3       4 UNK        -0.1981 
     24 N          23.3856   -0.0456   -5.3164 N.am      4 UNK        -0.4209 
     25 C          24.2069    0.8750   -4.7907 C.2       3 UNK         0.4942 
     26 O          24.9170    1.6230   -5.4615 O.2       3 UNK        -0.5208 
     27 CA         24.2875    0.9369   -3.2553 C.3       3 UNK         0.0250 
     28 CB         23.2700    1.9477   -2.7035 C.3       3 UNK        -0.1990 
     29 N          24.0981   -0.3615   -2.5966 N.am      3 UNK        -0.4232 
     30 C          24.8621   -1.4433   -2.8029 C.2       2 UNK         0.4993 
     31 O          25.7995   -1.4824   -3.6049 O.2       2 UNK        -0.5286 
     32 CA         24.4976   -2.7074   -2.0135 C.3       2 UNK         0.0209 
     33 CB         24.1960   -3.8797   -2.9629 C.3       2 UNK        -0.1931 
     34 N          25.6101   -3.0684   -1.1421 N.am      2 UNK        -0.4546 
     35 C          25.8626   -2.5030    0.0466 C.2       1 UNK         0.5154 
     36 O          25.1022   -1.7042    0.5956 O.2       1 UNK        -0.5181 
     37 C          27.6604   -1.2876   -6.8556 C.2       5 UNK         0.5014 
     38 O          28.4472   -1.1778   -7.7978 O.2       5 UNK        -0.5248 
     39 N          27.6432   -0.4752   -5.7869 N.am      6 UNK        -0.4434 
     40 CA         28.5399    0.6666   -5.6013 C.3       6 UNK         0.0363 
     41 CB         28.2739    1.3386   -4.2466 C.3       6 UNK        -0.1936 
     42 C          28.4700    1.6768   -6.7571 C.2       6 UNK         0.5081 
     43 O          29.5129    2.0475   -7.2969 O.2       6 UNK        -0.5248 
     44 N          27.2451    2.0560   -7.1457 N.am      7 UNK        -0.4718 
     45 CA         26.9686    2.9391   -8.2787 C.3       7 UNK         0.0273 
     46 CB         25.4820    3.3294   -8.2713 C.3       7 UNK        -0.1935 
     47 C          27.3615    2.3339   -9.6371 C.2       7 UNK         0.5018 
     48 O          27.9236    3.0496  -10.4668 O.2       7 UNK        -0.5186 
     49 N          27.0521    1.0458   -9.8489 N.am      8 UNK        -0.4240 
     50 CA         27.3249    0.3329  -11.0988 C.3       8 UNK         0.0235 
     51 CB         26.5437   -0.9907  -11.1361 C.3       8 UNK        -0.2000 
     52 C          28.8199    0.0811  -11.3403 C.2       8 UNK         0.4941 
     53 O          29.3045    0.3632  -12.4373 O.2       8 UNK        -0.5273 
     54 N          29.5170   -0.4656  -10.3345 N.am      9 UNK        -0.4262 
     55 CA         30.9291   -0.8373  -10.4453 C.3       9 UNK         0.0264 
     56 CB         31.2509   -1.9589   -9.4481 C.3       9 UNK        -0.1955 
     57 C          31.8863    0.3538  -10.2791 C.2       9 UNK         0.5031 
     58 O          32.9584    0.3271  -10.8852 O.2       9 UNK        -0.5390 
     59 N          31.4891    1.3686   -9.4912 N.am      10 UNK        -0.4204 
     60 CA         32.2092    2.6261   -9.2413 C.3       10 UNK         0.0237 
     61 CB         32.1726    3.5205  -10.4989 C.3       10 UNK        -0.1985 
     62 C          33.6355    2.4047   -8.6976 C.2       10 UNK         0.4970 
     63 O          34.6064    2.8775   -9.2928 O.2       10 UNK        -0.4914 
     64 N          33.7249    1.6569   -7.5898 N.am      11 UNK        -0.4285 
     65 CA         34.9715    1.2826   -6.9010 C.3       11 UNK         0.1007 
     66 C          35.8225    2.5061   -6.4582 C.2       11 UNK         0.5703 
     67 N          37.1420    2.4140   -6.5545 N.am      11 UNK        -0.7361 
     68 O          35.2984    3.5137   -5.9859 O.2       11 UNK        -0.4986 
     69 C69        34.6994    0.3622   -5.6808 C.3       12 UNK        -0.0947 
     70 S70        33.7848   -1.1631   -6.0946 S.3       12 UNK        -0.2240 
     71 C71        32.0733   -0.6584   -5.7438 C.3       12 UNK         0.0194 
     72 H72        25.9598   -6.7071    1.5238 H         1 UNK         0.0906 
     73 H73        26.3121   -5.2119    2.3757 H         1 UNK         0.0906 
     74 H74        25.2141   -5.2104    0.9822 H         1 UNK         0.0906 
     75 H75        28.5407   -4.0359   -0.3852 H         1 UNK         0.3140 
     76 H76        26.9422   -3.0443    1.7982 H         1 UNK         0.1085 
     77 H77        27.8394   -0.8711    1.2038 H         1 UNK         0.0836 
     78 H78        29.1283   -2.0306    1.2369 H         1 UNK         0.0836 
     79 H79        31.0632   -1.6163   -0.8762 H         1 UNK         0.0731 
     80 H80        30.1925   -3.1254   -0.7739 H         1 UNK         0.0731 
     81 H81        31.5922   -0.6260   -3.0700 H         1 UNK         0.1312 
     82 H82        30.8774   -2.9795   -6.5873 H         1 UNK         0.1406 
     83 H83        29.2565   -4.2091   -2.8164 H         1 UNK         0.1631 
     84 H84        28.8271   -5.5512   -4.6963 H         1 UNK         0.0717 
     85 H85        30.1908   -5.6034   -5.7829 H         1 UNK         0.0717 
     86 H86        26.0775   -4.2708   -5.9612 H         1 UNK         0.0934 
     87 H87        27.2145   -3.3254   -5.0383 H         1 UNK         0.0934 
     88 H88        26.4973   -2.7002   -7.9498 H         1 UNK         0.0739 
     89 H89        24.9306   -2.0075   -5.6250 H         1 UNK         0.3093 
     90 H90        23.0834    0.5803   -7.2717 H         1 UNK         0.0818 
     91 H91        21.1713   -0.8785   -6.6665 H         1 UNK         0.0819 
     92 H92        22.0182   -1.5436   -8.0522 H         1 UNK         0.0819 
     93 H93        22.2477   -2.2614   -6.4639 H         1 UNK         0.0819 
     94 H94        22.8254   -0.6014   -4.6870 H         1 UNK         0.3041 
     95 H95        25.2884    1.2863   -2.9959 H         1 UNK         0.0784 
     96 H96        23.4067    2.9280   -3.1628 H         1 UNK         0.0793 
     97 H97        22.2429    1.6369   -2.8985 H         1 UNK         0.0793 
     98 H98        23.3839    2.0789   -1.6272 H         1 UNK         0.0793 
     99 H99        23.3576   -0.4125   -1.9112 H         1 UNK         0.3024 
    100 H100       23.6084   -2.5194   -1.4071 H         1 UNK         0.1171 
    101 H101       23.3750   -3.6359   -3.6385 H         1 UNK         0.0786 
    102 H102       23.9031   -4.7710   -2.4075 H         1 UNK         0.0786 
    103 H103       25.0593   -4.1396   -3.5764 H         1 UNK         0.0786 
    104 H104       26.3169   -3.6720   -1.5359 H         1 UNK         0.2977 
    105 H105       26.9771   -0.6661   -5.0439 H         1 UNK         0.3127 
    106 H106       29.5517    0.2719   -5.5796 H         1 UNK         0.0770 
    107 H107       27.2870    1.7975   -4.2074 H         1 UNK         0.0814 
    108 H108       29.0051    2.1247   -4.0549 H         1 UNK         0.0814 
    109 H109       28.3456    0.6218   -3.4284 H         1 UNK         0.0814 
    110 H110       26.4408    1.7286   -6.6149 H         1 UNK         0.2983 
    111 H111       27.5601    3.8470   -8.1415 H         1 UNK         0.0947 
    112 H112       25.2483    4.0002   -9.0992 H         1 UNK         0.0806 
    113 H113       25.2129    3.8452   -7.3493 H         1 UNK         0.0806 
    114 H114       24.8358    2.4553   -8.3641 H         1 UNK         0.0806 
    115 H115       26.5469    0.5330   -9.1323 H         1 UNK         0.3000 
    116 H116       26.9617    0.9545  -11.9202 H         1 UNK         0.0850 
    117 H117       26.7450   -1.5396  -12.0570 H         1 UNK         0.0810 
    118 H118       25.4686   -0.8160  -11.0934 H         1 UNK         0.0810 
    119 H119       26.8101   -1.6410  -10.3020 H         1 UNK         0.0810 
    120 H120       29.0495   -0.6770   -9.4524 H         1 UNK         0.3040 
    121 H121       31.1005   -1.2418  -11.4456 H         1 UNK         0.0766 
    122 H122       32.3118   -2.2128   -9.4630 H         1 UNK         0.0812 
    123 H123       30.6938   -2.8663   -9.6815 H         1 UNK         0.0812 
    124 H124       30.9947   -1.6696   -8.4336 H         1 UNK         0.0812 
    125 H125       30.5998    1.2872   -9.0095 H         1 UNK         0.3205 
    126 H126       31.6612    3.1492   -8.4565 H         1 UNK         0.0754 
    127 H127       32.6267    4.4923  -10.3013 H         1 UNK         0.0769 
    128 H128       31.1474    3.7015  -10.8233 H         1 UNK         0.0769 
    129 H129       32.7128    3.0710  -11.3328 H         1 UNK         0.0769 
    130 H130       32.8738    1.3162   -7.1727 H         1 UNK         0.2981 
    131 H131       35.5588    0.7143   -7.6249 H         1 UNK         0.0541 
    132 H132       37.7101    3.1915   -6.2563 H         1 UNK         0.3459 
    133 H133       37.5819    1.5867   -6.9271 H         1 UNK         0.3459 
    134 H134       34.1783    0.9055   -4.8906 H         1 UNK         0.0612 
    135 H135       35.6470    0.0470   -5.2400 H         1 UNK         0.0612 
    136 H136       32.0556    0.2994   -5.2228 H         1 UNK         0.0624 
    137 H137       31.5531   -0.4818   -6.6835 H         1 UNK         0.0624 
@<TRIPOS>BOND
     1    1    2 1    
     2    1   72 1    
     3    1   73 1    
     4    1   74 1    
     5    2    3 2    
     6    2    4 am   BACKBONE|DICT|INTERRES
     7    4    5 1    
     8    4   75 1    
     9    5    6 1    
    10    5   35 1    
    11    5   76 1    
    12    6    7 1    
    13    6   77 1    
    14    6   78 1    
    15    7    8 1    
    16    8    9 1    
    17    8   79 1    
    18    8   80 1    
    19    9   10 ar   
    20    9   14 ar   
    21   10   11 ar   
    22   10   81 1    
    23   11   12 ar   
    24   11   71 1    
    25   12   13 ar   
    26   12   82 1    
    27   13   14 ar   
    28   13   15 1    
    29   14   83 1    
    30   15   16 1    
    31   15   84 1    
    32   15   85 1    
    33   16   17 1    
    34   17   18 1    
    35   17   86 1    
    36   17   87 1    
    37   18   19 1    
    38   18   37 1    
    39   18   88 1    
    40   19   20 am   BACKBONE|DICT|INTERRES
    41   19   89 1    
    42   20   21 2    
    43   20   22 1    
    44   22   23 1    
    45   22   24 1    
    46   22   90 1    
    47   23   91 1    
    48   23   92 1    
    49   23   93 1    
    50   24   25 am   BACKBONE|DICT|INTERRES
    51   24   94 1    
    52   25   26 2    
    53   25   27 1    
    54   27   28 1    
    55   27   29 1    
    56   27   95 1    
    57   28   96 1    
    58   28   97 1    
    59   28   98 1    
    60   29   30 am   BACKBONE|DICT|INTERRES
    61   29   99 1    
    62   30   31 2    
    63   30   32 1    
    64   32   33 1    
    65   32   34 1    
    66   32  100 1    
    67   33  101 1    
    68   33  102 1    
    69   33  103 1    
    70   34   35 am   BACKBONE|DICT|INTERRES
    71   34  104 1    
    72   35   36 2    
    73   37   38 2    
    74   37   39 am   BACKBONE|DICT|INTERRES
    75   39   40 1    
    76   39  105 1    
    77   40   41 1    
    78   40   42 1    
    79   40  106 1    
    80   41  107 1    
    81   41  108 1    
    82   41  109 1    
    83   42   43 2    
    84   42   44 am   BACKBONE|DICT|INTERRES
    85   44   45 1    
    86   44  110 1    
    87   45   46 1    
    88   45   47 1    
    89   45  111 1    
    90   46  112 1    
    91   46  113 1    
    92   46  114 1    
    93   47   48 2    
    94   47   49 am   BACKBONE|DICT|INTERRES
    95   49   50 1    
    96   49  115 1    
    97   50   51 1    
    98   50   52 1    
    99   50  116 1    
   100   51  117 1    
   101   51  118 1    
   102   51  119 1    
   103   52   53 2    
   104   52   54 am   BACKBONE|DICT|INTERRES
   105   54   55 1    
   106   54  120 1    
   107   55   56 1    
   108   55   57 1    
   109   55  121 1    
   110   56  122 1    
   111   56  123 1    
   112   56  124 1    
   113   57   58 2    
   114   57   59 am   BACKBONE|DICT|INTERRES
   115   59   60 1    
   116   59  125 1    
   117   60   61 1    
   118   60   62 1    
   119   60  126 1    
   120   61  127 1    
   121   61  128 1    
   122   61  129 1    
   123   62   63 2    
   124   62   64 am   BACKBONE|DICT|INTERRES
   125   64   65 1    
   126   64  130 1    
   127   65   66 1    
   128   65   69 1    
   129   65  131 1    
   130   66   67 am   BACKBONE|DICT|INTERRES
   131   66   68 2    
   132   67  132 1    
   133   67  133 1    
   134   69   70 1    
   135   69  134 1    
   136   69  135 1    
   137   70   71 1    
   138   71  136 1    
   139   71  137 1    
@<TRIPOS>SUBSTRUCTURE
     1 UNK         1 GROUP             0       ****    0 ROOT    
