@<TRIPOS>MOLECULE
3R137
137   139    1
SMALL
USER_CHARGES


@<TRIPOS>ATOM
      1 CA         28.6252   -3.3898    3.3315 C.3       0 UNK        -0.2020 
      2 C          28.9939   -2.8111    1.9736 C.2       0 UNK         0.4855 
      3 O          29.7286   -1.8249    1.9073 O.2       0 UNK        -0.5197 
      4 N          28.4993   -3.4226    0.8908 N.am      1 UNK        -0.4892 
      5 CA         28.7089   -2.9763   -0.4911 C.3       1 UNK         0.0835 
      6 C6         28.3473   -4.0777   -1.5198 C.3       12 UNK        -0.0855 
      7 S7         29.1787   -5.6788   -1.2282 S.3       12 UNK        -0.2931 
      8 C8         30.8732   -5.3744   -1.8447 C.3       12 UNK         0.0378 
      9 C9         30.9865   -4.9714   -3.3161 C.ar      12 UNK        -0.0802 
     10 C10        32.1001   -4.2280   -3.7223 C.ar      12 UNK        -0.0944 
     11 C11        32.2496   -3.8281   -5.0535 C.ar      12 UNK        -0.0787 
     12 C12        31.2736   -4.1826   -5.9878 C.ar      12 UNK        -0.0862 
     13 C13        30.1394   -4.8950   -5.5938 C.ar      12 UNK        -0.0733 
     14 C14        30.0180   -5.3185   -4.2677 C.ar      12 UNK        -0.0832 
     15 C15        29.0151   -5.1464   -6.5881 C.3       12 UNK         0.0240 
     16 S16        27.5401   -4.1452   -6.1946 S.3       12 UNK        -0.2522 
     17 C17        28.2117   -2.4446   -6.1434 C.3       12 UNK        -0.0967 
     18 CA         27.4110   -1.4539   -7.0171 C.3       5 UNK         0.0660 
     19 N          25.9907   -1.3997   -6.6649 N.am      5 UNK        -0.4015 
     20 C          25.0357   -0.9150   -7.4709 C.2       4 UNK         0.4946 
     21 O          25.2648   -0.4547   -8.5899 O.2       4 UNK        -0.5353 
     22 CA         23.5978   -0.8771   -6.9229 C.3       4 UNK         0.0277 
     23 CB         22.8653   -2.1871   -7.2517 C.3       4 UNK        -0.1981 
     24 N          23.5281   -0.6217   -5.4801 N.am      4 UNK        -0.4209 
     25 C          24.0045    0.4787   -4.8808 C.2       3 UNK         0.4942 
     26 O          24.5160    1.4138   -5.4970 O.2       3 UNK        -0.5208 
     27 CA         23.9686    0.5386   -3.3412 C.3       3 UNK         0.0250 
     28 CB         23.2520   -0.6578   -2.6729 C.3       3 UNK        -0.1990 
     29 N          25.3201    0.7010   -2.7868 N.am      3 UNK        -0.4232 
     30 C          26.3717   -0.1077   -2.9925 C.2       2 UNK         0.4993 
     31 O          26.3254   -1.1179   -3.6979 O.2       2 UNK        -0.5286 
     32 CA         27.7150    0.2732   -2.3349 C.3       2 UNK         0.0209 
     33 CB         27.6273    1.4260   -1.3084 C.3       2 UNK        -0.1931 
     34 N          28.3812   -0.8992   -1.7527 N.am      2 UNK        -0.4546 
     35 C          27.8932   -1.7015   -0.7939 C.2       1 UNK         0.5154 
     36 O          26.8301   -1.5005   -0.1983 O.2       1 UNK        -0.5181 
     37 C          28.0715   -0.0605   -7.0093 C.2       5 UNK         0.5014 
     38 O          29.1036    0.1034   -7.6604 O.2       5 UNK        -0.5248 
     39 N          27.4757    0.9332   -6.3298 N.am      6 UNK        -0.4434 
     40 CA         27.9194    2.3290   -6.4014 C.3       6 UNK         0.0363 
     41 CB         27.3501    3.1393   -5.2269 C.3       6 UNK        -0.1936 
     42 C          27.5688    2.9868   -7.7465 C.2       6 UNK         0.5081 
     43 O          28.2621    3.9178   -8.1528 O.2       6 UNK        -0.5248 
     44 N          26.5296    2.4825   -8.4247 N.am      7 UNK        -0.4718 
     45 CA         26.1735    2.8753   -9.7858 C.3       7 UNK         0.0273 
     46 CB         24.6500    2.7730   -9.9714 C.3       7 UNK        -0.1935 
     47 C          26.9142    2.0116  -10.8176 C.2       7 UNK         0.5018 
     48 O          27.5059    2.5589  -11.7481 O.2       7 UNK        -0.5186 
     49 N          26.8560    0.6827  -10.6460 N.am      8 UNK        -0.4240 
     50 CA         27.3538   -0.2930  -11.6180 C.3       8 UNK         0.0235 
     51 CB         26.7203   -1.6657  -11.3371 C.3       8 UNK        -0.2000 
     52 C          28.8851   -0.4116  -11.6758 C.2       8 UNK         0.4941 
     53 O          29.4272   -0.5327  -12.7753 O.2       8 UNK        -0.5273 
     54 N          29.5491   -0.4111  -10.5119 N.am      9 UNK        -0.4262 
     55 CA         30.9852   -0.6876  -10.3797 C.3       9 UNK         0.0264 
     56 CB         31.1573   -1.9553   -9.5227 C.3       9 UNK        -0.1955 
     57 C          31.7791    0.4880   -9.7827 C.2       9 UNK         0.5031 
     58 O          33.0043    0.3918   -9.7021 O.2       9 UNK        -0.5390 
     59 N          31.0852    1.5614   -9.3730 N.am      10 UNK        -0.4204 
     60 CA         31.6027    2.7414   -8.6657 C.3       10 UNK         0.0237 
     61 CB         32.6059    3.5274   -9.5379 C.3       10 UNK        -0.1985 
     62 C          32.1471    2.4227   -7.2563 C.2       10 UNK         0.4970 
     63 O          33.0191    3.1398   -6.7634 O.2       10 UNK        -0.4914 
     64 N          31.6078    1.3752   -6.6199 N.am      11 UNK        -0.4285 
     65 CA         31.9908    0.8925   -5.2811 C.3       11 UNK         0.1007 
     66 C          31.2475    1.6122   -4.1147 C.2       11 UNK         0.5703 
     67 N          30.7780    2.8414   -4.2867 N.am      11 UNK        -0.7361 
     68 O          31.0914    1.0550   -3.0310 O.2       11 UNK        -0.4986 
     69 C69        31.8846   -0.6531   -5.1942 C.3       12 UNK        -0.0947 
     70 S70        32.9848   -1.4874   -6.3869 S.3       12 UNK        -0.2240 
     71 C71        33.4547   -2.9947   -5.4741 C.3       12 UNK         0.0194 
     72 H72        27.9867   -4.2685    3.2411 H         1 UNK         0.0906 
     73 H73        29.5252   -3.6796    3.8732 H         1 UNK         0.0906 
     74 H74        28.0950   -2.6453    3.9247 H         1 UNK         0.0906 
     75 H75        27.8945   -4.2241    0.9997 H         1 UNK         0.3140 
     76 H76        29.7675   -2.7319   -0.6042 H         1 UNK         0.1085 
     77 H77        27.2720   -4.2682   -1.5036 H         1 UNK         0.0836 
     78 H78        28.5658   -3.7383   -2.5337 H         1 UNK         0.0836 
     79 H79        31.3291   -4.6091   -1.2148 H         1 UNK         0.0731 
     80 H80        31.4593   -6.2818   -1.6940 H         1 UNK         0.0731 
     81 H81        32.8528   -3.9535   -2.9956 H         1 UNK         0.1312 
     82 H82        31.3763   -3.8590   -7.0145 H         1 UNK         0.1406 
     83 H83        29.1416   -5.8805   -3.9767 H         1 UNK         0.1631 
     84 H84        28.7448   -6.2031   -6.5743 H         1 UNK         0.0717 
     85 H85        29.3363   -4.9222   -7.6066 H         1 UNK         0.0717 
     86 H86        29.2464   -2.4592   -6.4852 H         1 UNK         0.0934 
     87 H87        28.2459   -2.1204   -5.1025 H         1 UNK         0.0934 
     88 H88        27.4762   -1.8145   -8.0451 H         1 UNK         0.0739 
     89 H89        25.7556   -1.6986   -5.7251 H         1 UNK         0.3093 
     90 H90        23.0801   -0.0587   -7.4279 H         1 UNK         0.0818 
     91 H91        21.8177   -2.1429   -6.9531 H         1 UNK         0.0819 
     92 H92        22.8859   -2.3856   -8.3244 H         1 UNK         0.0819 
     93 H93        23.3224   -3.0431   -6.7535 H         1 UNK         0.0819 
     94 H94        23.1418   -1.3540   -4.9021 H         1 UNK         0.3041 
     95 H95        23.4142    1.4430   -3.0863 H         1 UNK         0.0784 
     96 H96        22.2196   -0.7446   -3.0146 H         1 UNK         0.0793 
     97 H97        23.7537   -1.6060   -2.8706 H         1 UNK         0.0793 
     98 H98        23.2160   -0.5313   -1.5907 H         1 UNK         0.0793 
     99 H99        25.4598    1.5208   -2.2134 H         1 UNK         0.3024 
    100 H100       28.3556    0.6082   -3.1519 H         1 UNK         0.1171 
    101 H101       28.6084    1.6407   -0.8839 H         1 UNK         0.0786 
    102 H102       26.9560    1.1913   -0.4815 H         1 UNK         0.0786 
    103 H103       27.2782    2.3497   -1.7712 H         1 UNK         0.0786 
    104 H104       29.2549   -1.1536   -2.1920 H         1 UNK         0.2977 
    105 H105       26.5954    0.7585   -5.8596 H         1 UNK         0.3127 
    106 H106       29.0053    2.3431   -6.3146 H         1 UNK         0.0770 
    107 H107       26.2676    3.2446   -5.2868 H         1 UNK         0.0814 
    108 H108       27.7680    4.1468   -5.2189 H         1 UNK         0.0814 
    109 H109       27.5961    2.6836   -4.2695 H         1 UNK         0.0814 
    110 H110       26.0108    1.7135   -8.0218 H         1 UNK         0.2983 
    111 H111       26.4588    3.9165   -9.9543 H         1 UNK         0.0947 
    112 H112       24.3606    3.0692  -10.9806 H         1 UNK         0.0806 
    113 H113       24.1239    3.4296   -9.2784 H         1 UNK         0.0806 
    114 H114       24.2829    1.7586   -9.8121 H         1 UNK         0.0806 
    115 H115       26.3099    0.3121   -9.8694 H         1 UNK         0.3000 
    116 H116       27.0178    0.0271  -12.6071 H         1 UNK         0.0850 
    117 H117       27.0346   -2.4004  -12.0798 H         1 UNK         0.0810 
    118 H118       25.6318   -1.6146  -11.3731 H         1 UNK         0.0810 
    119 H119       27.0026   -2.0517  -10.3579 H         1 UNK         0.0810 
    120 H120       29.0409   -0.2953   -9.6419 H         1 UNK         0.3040 
    121 H121       31.4293   -0.8860  -11.3572 H         1 UNK         0.0766 
    122 H122       32.2104   -2.2203   -9.4198 H         1 UNK         0.0812 
    123 H123       30.7572   -1.8201   -8.5179 H         1 UNK         0.0812 
    124 H124       30.6519   -2.8099   -9.9722 H         1 UNK         0.0812 
    125 H125       30.0811    1.5226   -9.4736 H         1 UNK         0.3205 
    126 H126       30.7459    3.3940   -8.5061 H         1 UNK         0.0754 
    127 H127       32.8534    4.4863   -9.0809 H         1 UNK         0.0769 
    128 H128       32.1934    3.7382  -10.5245 H         1 UNK         0.0769 
    129 H129       33.5413    2.9839   -9.6734 H         1 UNK         0.0769 
    130 H130       30.8678    0.8548   -7.0793 H         1 UNK         0.2981 
    131 H131       33.0423    1.1376   -5.1226 H         1 UNK         0.0541 
    132 H132       30.9592    3.3406   -5.1420 H         1 UNK         0.3459 
    133 H133       30.3172    3.3012   -3.5185 H         1 UNK         0.3459 
    134 H134       30.8595   -0.9803   -5.3717 H         1 UNK         0.0612 
    135 H135       32.1509   -0.9993   -4.1941 H         1 UNK         0.0612 
    136 H136       34.1016   -3.6025   -6.1077 H         1 UNK         0.0624 
    137 H137       34.0508   -2.7051   -4.6073 H         1 UNK         0.0624 
@<TRIPOS>BOND
     1    1    2 1    
     2    1   72 1    
     3    1   73 1    
     4    1   74 1    
     5    2    3 2    
     6    2    4 am   BACKBONE|DICT|INTERRES
     7    4    5 1    
     8    4   75 1    
     9    5    6 1    
    10    5   35 1    
    11    5   76 1    
    12    6    7 1    
    13    6   77 1    
    14    6   78 1    
    15    7    8 1    
    16    8    9 1    
    17    8   79 1    
    18    8   80 1    
    19    9   10 ar   
    20    9   14 ar   
    21   10   11 ar   
    22   10   81 1    
    23   11   12 ar   
    24   11   71 1    
    25   12   13 ar   
    26   12   82 1    
    27   13   14 ar   
    28   13   15 1    
    29   14   83 1    
    30   15   16 1    
    31   15   84 1    
    32   15   85 1    
    33   16   17 1    
    34   17   18 1    
    35   17   86 1    
    36   17   87 1    
    37   18   19 1    
    38   18   37 1    
    39   18   88 1    
    40   19   20 am   BACKBONE|DICT|INTERRES
    41   19   89 1    
    42   20   21 2    
    43   20   22 1    
    44   22   23 1    
    45   22   24 1    
    46   22   90 1    
    47   23   91 1    
    48   23   92 1    
    49   23   93 1    
    50   24   25 am   BACKBONE|DICT|INTERRES
    51   24   94 1    
    52   25   26 2    
    53   25   27 1    
    54   27   28 1    
    55   27   29 1    
    56   27   95 1    
    57   28   96 1    
    58   28   97 1    
    59   28   98 1    
    60   29   30 am   BACKBONE|DICT|INTERRES
    61   29   99 1    
    62   30   31 2    
    63   30   32 1    
    64   32   33 1    
    65   32   34 1    
    66   32  100 1    
    67   33  101 1    
    68   33  102 1    
    69   33  103 1    
    70   34   35 am   BACKBONE|DICT|INTERRES
    71   34  104 1    
    72   35   36 2    
    73   37   38 2    
    74   37   39 am   BACKBONE|DICT|INTERRES
    75   39   40 1    
    76   39  105 1    
    77   40   41 1    
    78   40   42 1    
    79   40  106 1    
    80   41  107 1    
    81   41  108 1    
    82   41  109 1    
    83   42   43 2    
    84   42   44 am   BACKBONE|DICT|INTERRES
    85   44   45 1    
    86   44  110 1    
    87   45   46 1    
    88   45   47 1    
    89   45  111 1    
    90   46  112 1    
    91   46  113 1    
    92   46  114 1    
    93   47   48 2    
    94   47   49 am   BACKBONE|DICT|INTERRES
    95   49   50 1    
    96   49  115 1    
    97   50   51 1    
    98   50   52 1    
    99   50  116 1    
   100   51  117 1    
   101   51  118 1    
   102   51  119 1    
   103   52   53 2    
   104   52   54 am   BACKBONE|DICT|INTERRES
   105   54   55 1    
   106   54  120 1    
   107   55   56 1    
   108   55   57 1    
   109   55  121 1    
   110   56  122 1    
   111   56  123 1    
   112   56  124 1    
   113   57   58 2    
   114   57   59 am   BACKBONE|DICT|INTERRES
   115   59   60 1    
   116   59  125 1    
   117   60   61 1    
   118   60   62 1    
   119   60  126 1    
   120   61  127 1    
   121   61  128 1    
   122   61  129 1    
   123   62   63 2    
   124   62   64 am   BACKBONE|DICT|INTERRES
   125   64   65 1    
   126   64  130 1    
   127   65   66 1    
   128   65   69 1    
   129   65  131 1    
   130   66   67 am   BACKBONE|DICT|INTERRES
   131   66   68 2    
   132   67  132 1    
   133   67  133 1    
   134   69   70 1    
   135   69  134 1    
   136   69  135 1    
   137   70   71 1    
   138   71  136 1    
   139   71  137 1    
@<TRIPOS>SUBSTRUCTURE
     1 UNK         1 GROUP             0       ****    0 ROOT    
