@<TRIPOS>MOLECULE
3R137
137   139    1
SMALL
USER_CHARGES


@<TRIPOS>ATOM
      1 CA         25.2132   -3.6903    2.0165 C.3       0 UNK        -0.2020 
      2 C          26.3344   -4.6077    1.5328 C.2       0 UNK         0.4855 
      3 O          26.1283   -5.8173    1.4526 O.2       0 UNK        -0.5197 
      4 N          27.5341   -4.0996    1.2175 N.am      1 UNK        -0.4892 
      5 CA         27.9243   -2.6856    1.1631 C.3       1 UNK         0.0835 
      6 C6         29.4666   -2.5253    1.0410 C.3       12 UNK        -0.0855 
      7 S7         30.2259   -3.4559   -0.3420 S.3       12 UNK        -0.2931 
      8 C8         30.3172   -2.1720   -1.6346 C.3       12 UNK         0.0378 
      9 C9         30.3612   -2.7775   -3.0302 C.ar      12 UNK        -0.0802 
     10 C10        31.4689   -2.5703   -3.8550 C.ar      12 UNK        -0.0944 
     11 C11        31.5009   -3.0981   -5.1490 C.ar      12 UNK        -0.0787 
     12 C12        30.4145   -3.8490   -5.6155 C.ar      12 UNK        -0.0862 
     13 C13        29.3086   -4.0838   -4.7905 C.ar      12 UNK        -0.0733 
     14 C14        29.2826   -3.5306   -3.5064 C.ar      12 UNK        -0.0832 
     15 C15        28.1748   -4.9975   -5.2402 C.3       12 UNK         0.0240 
     16 S16        26.6620   -4.0879   -5.6909 S.3       12 UNK        -0.2522 
     17 C17        26.7940   -3.9713   -7.5129 C.3       12 UNK        -0.0967 
     18 CA         26.5553   -2.5483   -8.0775 C.3       5 UNK         0.0660 
     19 N          25.2933   -1.9612   -7.6145 N.am      5 UNK        -0.4015 
     20 C          24.7722   -0.8073   -8.0554 C.2       4 UNK         0.4946 
     21 O          25.2707   -0.1318   -8.9542 O.2       4 UNK        -0.5353 
     22 CA         23.5047   -0.2864   -7.3539 C.3       4 UNK         0.0277 
     23 CB         22.2477   -0.7770   -8.0896 C.3       4 UNK        -0.1981 
     24 N          23.4039   -0.6272   -5.9290 N.am      4 UNK        -0.4209 
     25 C          24.3182   -0.3262   -4.9966 C.2       3 UNK         0.4942 
     26 O          25.3913    0.2347   -5.2437 O.2       3 UNK        -0.5208 
     27 CA         23.9919   -0.7435   -3.5562 C.3       3 UNK         0.0250 
     28 CB         23.9034   -2.2787   -3.4228 C.3       3 UNK        -0.1990 
     29 N          25.0544   -0.2262   -2.7034 N.am      3 UNK        -0.4232 
     30 C          25.0750   -0.1819   -1.3695 C.2       2 UNK         0.4993 
     31 O          24.1322   -0.5049   -0.6426 O.2       2 UNK        -0.5286 
     32 CA         26.3929    0.3058   -0.7413 C.3       2 UNK         0.0209 
     33 CB         26.2050    1.6821   -0.0816 C.3       2 UNK        -0.1931 
     34 N          26.9512   -0.6318    0.2402 N.am      2 UNK        -0.4546 
     35 C          27.1982   -1.9337    0.0274 C.2       1 UNK         0.5154 
     36 O          26.9321   -2.5263   -1.0209 O.2       1 UNK        -0.5181 
     37 C          27.7662   -1.6300   -7.8265 C.2       5 UNK         0.5014 
     38 O          28.5824   -1.4520   -8.7314 O.2       5 UNK        -0.5248 
     39 N          27.8345   -1.0363   -6.6260 N.am      6 UNK        -0.4434 
     40 CA         28.8927   -0.1141   -6.2182 C.3       6 UNK         0.0363 
     41 CB         28.7808    0.1805   -4.7137 C.3       6 UNK        -0.1936 
     42 C          28.8607    1.1889   -7.0263 C.2       6 UNK         0.5081 
     43 O          29.9194    1.7091   -7.3751 O.2       6 UNK        -0.5248 
     44 N          27.6493    1.6736   -7.3311 N.am      7 UNK        -0.4718 
     45 CA         27.4193    2.8355   -8.1877 C.3       7 UNK         0.0273 
     46 CB         25.9598    3.2994   -8.0525 C.3       7 UNK        -0.1935 
     47 C          27.7799    2.5524   -9.6551 C.2       7 UNK         0.5018 
     48 O          28.4979    3.3482  -10.2602 O.2       7 UNK        -0.5186 
     49 N          27.2952    1.4225  -10.1919 N.am      8 UNK        -0.4240 
     50 CA         27.5053    0.9949  -11.5777 C.3       8 UNK         0.0235 
     51 CB         26.6264   -0.2287  -11.8841 C.3       8 UNK        -0.2000 
     52 C          28.9748    0.6994  -11.9127 C.2       8 UNK         0.4941 
     53 O          29.4532    1.1423  -12.9577 O.2       8 UNK        -0.5273 
     54 N          29.6667   -0.0293  -11.0260 N.am      9 UNK        -0.4262 
     55 CA         31.0838   -0.3711  -11.1803 C.3       9 UNK         0.0264 
     56 CB         31.3635   -1.6921  -10.4471 C.3       9 UNK        -0.1955 
     57 C          32.0407    0.7436  -10.7137 C.2       9 UNK         0.5031 
     58 O          33.2432    0.6230  -10.9535 O.2       9 UNK        -0.5390 
     59 N          31.5055    1.7965  -10.0741 N.am      10 UNK        -0.4204 
     60 CA         32.2081    2.9552   -9.5078 C.3       10 UNK         0.0237 
     61 CB         32.8319    3.8216  -10.6228 C.3       10 UNK        -0.1985 
     62 C          33.2155    2.5467   -8.4154 C.2       10 UNK         0.4970 
     63 O          34.3868    2.9278   -8.4701 O.2       10 UNK        -0.4914 
     64 N          32.7304    1.7599   -7.4493 N.am      11 UNK        -0.4285 
     65 CA         33.5099    1.2180   -6.3254 C.3       11 UNK         0.1007 
     66 C          33.8047    2.2470   -5.1960 C.2       11 UNK         0.5703 
     67 N          33.1737    3.4156   -5.1754 N.am      11 UNK        -0.7361 
     68 O          34.6305    1.9821   -4.3255 O.2       11 UNK        -0.4986 
     69 C69        32.8638   -0.0683   -5.7467 C.3       12 UNK        -0.0947 
     70 S70        32.6351   -1.3677   -7.0067 S.3       12 UNK        -0.2240 
     71 C71        32.7322   -2.8928   -6.0211 C.3       12 UNK         0.0194 
     72 H72        25.5612   -2.9941    2.7782 H         1 UNK         0.0906 
     73 H73        24.7909   -3.1251    1.1857 H         1 UNK         0.0906 
     74 H74        24.4083   -4.2775    2.4584 H         1 UNK         0.0906 
     75 H75        28.2416   -4.7300    0.8665 H         1 UNK         0.3140 
     76 H76        27.6281   -2.2260    2.1079 H         1 UNK         0.1085 
     77 H77        29.7483   -1.4724    0.9738 H         1 UNK         0.0836 
     78 H78        29.9315   -2.8838    1.9609 H         1 UNK         0.0836 
     79 H79        29.4567   -1.5066   -1.5802 H         1 UNK         0.0731 
     80 H80        31.1938   -1.5493   -1.4491 H         1 UNK         0.0731 
     81 H81        32.3096   -1.9971   -3.4898 H         1 UNK         0.1312 
     82 H82        30.4446   -4.2743   -6.6093 H         1 UNK         0.1406 
     83 H83        28.4282   -3.7030   -2.8649 H         1 UNK         0.1631 
     84 H84        27.9290   -5.6751   -4.4211 H         1 UNK         0.0717 
     85 H85        28.4931   -5.6391   -6.0630 H         1 UNK         0.0717 
     86 H86        27.7607   -4.3524   -7.8481 H         1 UNK         0.0934 
     87 H87        26.0551   -4.6534   -7.9365 H         1 UNK         0.0934 
     88 H88        26.4676   -2.6451   -9.1619 H         1 UNK         0.0739 
     89 H89        24.8276   -2.4472   -6.8624 H         1 UNK         0.3093 
     90 H90        23.5320    0.8032   -7.4196 H         1 UNK         0.0818 
     91 H91        21.3448   -0.3214   -7.6825 H         1 UNK         0.0819 
     92 H92        22.2890   -0.5164   -9.1484 H         1 UNK         0.0819 
     93 H93        22.1375   -1.8602   -8.0250 H         1 UNK         0.0819 
     94 H94        22.5541   -1.0895   -5.6382 H         1 UNK         0.3041 
     95 H95        23.0447   -0.2844   -3.2666 H         1 UNK         0.0784 
     96 H96        23.1444   -2.7001   -4.0823 H         1 UNK         0.0793 
     97 H97        24.8536   -2.7556   -3.6654 H         1 UNK         0.0793 
     98 H98        23.6395   -2.5757   -2.4078 H         1 UNK         0.0793 
     99 H99        25.8431    0.1170   -3.2389 H         1 UNK         0.3024 
    100 H100       27.1378    0.4100   -1.5337 H         1 UNK         0.1171 
    101 H101       27.1499    2.0797    0.2895 H         1 UNK         0.0786 
    102 H102       25.8092    2.4063   -0.7950 H         1 UNK         0.0786 
    103 H103       25.5068    1.6352    0.7554 H         1 UNK         0.0786 
    104 H104       27.1927   -0.2340    1.1364 H         1 UNK         0.2977 
    105 H105       27.0864   -1.1934   -5.9642 H         1 UNK         0.3127 
    106 H106       29.8465   -0.6093   -6.4048 H         1 UNK         0.0770 
    107 H107       27.8881    0.7600   -4.4784 H         1 UNK         0.0814 
    108 H108       29.6402    0.7552   -4.3670 H         1 UNK         0.0814 
    109 H109       28.7463   -0.7378   -4.1300 H         1 UNK         0.0814 
    110 H110       26.8357    1.1760   -6.9922 H         1 UNK         0.2983 
    111 H111       28.0651    3.6444   -7.8383 H         1 UNK         0.0947 
    112 H112       25.7770    4.1877   -8.6585 H         1 UNK         0.0806 
    113 H113       25.7200    3.5562   -7.0205 H         1 UNK         0.0806 
    114 H114       25.2560    2.5332   -8.3782 H         1 UNK         0.0806 
    115 H115       26.6785    0.8383   -9.6288 H         1 UNK         0.3000 
    116 H116       27.1808    1.8133  -12.2240 H         1 UNK         0.0850 
    117 H117       26.7619   -0.5617  -12.9140 H         1 UNK         0.0810 
    118 H118       25.5688    0.0020  -11.7548 H         1 UNK         0.0810 
    119 H119       26.8658   -1.0700  -11.2325 H         1 UNK         0.0810 
    120 H120       29.1973   -0.3950  -10.1987 H         1 UNK         0.3040 
    121 H121       31.2922   -0.5372  -12.2395 H         1 UNK         0.0766 
    122 H122       31.1137   -1.6205   -9.3901 H         1 UNK         0.0812 
    123 H123       32.4155   -1.9717  -10.5175 H         1 UNK         0.0812 
    124 H124       30.7801   -2.5100  -10.8697 H         1 UNK         0.0812 
    125 H125       30.5072    1.7814   -9.9128 H         1 UNK         0.3205 
    126 H126       31.4462    3.5589   -9.0121 H         1 UNK         0.0754 
    127 H127       33.2614    4.7359  -10.2114 H         1 UNK         0.0769 
    128 H128       32.0831    4.1176  -11.3578 H         1 UNK         0.0769 
    129 H129       33.6294    3.2964  -11.1493 H         1 UNK         0.0769 
    130 H130       31.7344    1.5486   -7.4521 H         1 UNK         0.2981 
    131 H131       34.4865    0.9328   -6.7212 H         1 UNK         0.0541 
    132 H132       32.4911    3.6382   -5.8816 H         1 UNK         0.3459 
    133 H133       33.3783    4.0753   -4.4417 H         1 UNK         0.3459 
    134 H134       31.8950    0.1556   -5.2986 H         1 UNK         0.0612 
    135 H135       33.4892   -0.4717   -4.9487 H         1 UNK         0.0612 
    136 H136       33.6353   -2.8768   -5.4092 H         1 UNK         0.0624 
    137 H137       32.8451   -3.7372   -6.7026 H         1 UNK         0.0624 
@<TRIPOS>BOND
     1    1    2 1    
     2    1   72 1    
     3    1   73 1    
     4    1   74 1    
     5    2    3 2    
     6    2    4 am   BACKBONE|DICT|INTERRES
     7    4    5 1    
     8    4   75 1    
     9    5    6 1    
    10    5   35 1    
    11    5   76 1    
    12    6    7 1    
    13    6   77 1    
    14    6   78 1    
    15    7    8 1    
    16    8    9 1    
    17    8   79 1    
    18    8   80 1    
    19    9   10 ar   
    20    9   14 ar   
    21   10   11 ar   
    22   10   81 1    
    23   11   12 ar   
    24   11   71 1    
    25   12   13 ar   
    26   12   82 1    
    27   13   14 ar   
    28   13   15 1    
    29   14   83 1    
    30   15   16 1    
    31   15   84 1    
    32   15   85 1    
    33   16   17 1    
    34   17   18 1    
    35   17   86 1    
    36   17   87 1    
    37   18   19 1    
    38   18   37 1    
    39   18   88 1    
    40   19   20 am   BACKBONE|DICT|INTERRES
    41   19   89 1    
    42   20   21 2    
    43   20   22 1    
    44   22   23 1    
    45   22   24 1    
    46   22   90 1    
    47   23   91 1    
    48   23   92 1    
    49   23   93 1    
    50   24   25 am   BACKBONE|DICT|INTERRES
    51   24   94 1    
    52   25   26 2    
    53   25   27 1    
    54   27   28 1    
    55   27   29 1    
    56   27   95 1    
    57   28   96 1    
    58   28   97 1    
    59   28   98 1    
    60   29   30 am   BACKBONE|DICT|INTERRES
    61   29   99 1    
    62   30   31 2    
    63   30   32 1    
    64   32   33 1    
    65   32   34 1    
    66   32  100 1    
    67   33  101 1    
    68   33  102 1    
    69   33  103 1    
    70   34   35 am   BACKBONE|DICT|INTERRES
    71   34  104 1    
    72   35   36 2    
    73   37   38 2    
    74   37   39 am   BACKBONE|DICT|INTERRES
    75   39   40 1    
    76   39  105 1    
    77   40   41 1    
    78   40   42 1    
    79   40  106 1    
    80   41  107 1    
    81   41  108 1    
    82   41  109 1    
    83   42   43 2    
    84   42   44 am   BACKBONE|DICT|INTERRES
    85   44   45 1    
    86   44  110 1    
    87   45   46 1    
    88   45   47 1    
    89   45  111 1    
    90   46  112 1    
    91   46  113 1    
    92   46  114 1    
    93   47   48 2    
    94   47   49 am   BACKBONE|DICT|INTERRES
    95   49   50 1    
    96   49  115 1    
    97   50   51 1    
    98   50   52 1    
    99   50  116 1    
   100   51  117 1    
   101   51  118 1    
   102   51  119 1    
   103   52   53 2    
   104   52   54 am   BACKBONE|DICT|INTERRES
   105   54   55 1    
   106   54  120 1    
   107   55   56 1    
   108   55   57 1    
   109   55  121 1    
   110   56  122 1    
   111   56  123 1    
   112   56  124 1    
   113   57   58 2    
   114   57   59 am   BACKBONE|DICT|INTERRES
   115   59   60 1    
   116   59  125 1    
   117   60   61 1    
   118   60   62 1    
   119   60  126 1    
   120   61  127 1    
   121   61  128 1    
   122   61  129 1    
   123   62   63 2    
   124   62   64 am   BACKBONE|DICT|INTERRES
   125   64   65 1    
   126   64  130 1    
   127   65   66 1    
   128   65   69 1    
   129   65  131 1    
   130   66   67 am   BACKBONE|DICT|INTERRES
   131   66   68 2    
   132   67  132 1    
   133   67  133 1    
   134   69   70 1    
   135   69  134 1    
   136   69  135 1    
   137   70   71 1    
   138   71  136 1    
   139   71  137 1    
@<TRIPOS>SUBSTRUCTURE
     1 UNK         1 GROUP             0       ****    0 ROOT    
