@<TRIPOS>MOLECULE
3R137
137   139    1
SMALL
USER_CHARGES


@<TRIPOS>ATOM
      1 CA         27.0416   -3.6645   -8.8244 C.3       0 UNK        -0.2020 
      2 C          27.2482   -4.2072   -7.4188 C.2       0 UNK         0.4855 
      3 O          26.4584   -5.0324   -6.9581 O.2       0 UNK        -0.5197 
      4 N          28.3052   -3.7532   -6.7319 N.am      1 UNK        -0.4892 
      5 CA         28.6196   -4.1199   -5.3460 C.3       1 UNK         0.0835 
      6 C6         30.0325   -3.6245   -4.9384 C.3       12 UNK        -0.0855 
      7 S7         30.9572   -4.8400   -3.9375 S.3       12 UNK        -0.2931 
      8 C8         30.6095   -4.3661   -2.2107 C.3       12 UNK         0.0378 
      9 C9         30.8925   -2.8998   -1.9179 C.ar      12 UNK        -0.0802 
     10 C10        32.2030   -2.4160   -1.9092 C.ar      12 UNK        -0.0944 
     11 C11        32.4590   -1.0705   -1.6271 C.ar      12 UNK        -0.0787 
     12 C12        31.3922   -0.2080   -1.3486 C.ar      12 UNK        -0.0862 
     13 C13        30.0770   -0.6849   -1.3351 C.ar      12 UNK        -0.0733 
     14 C14        29.8389   -2.0321   -1.6211 C.ar      12 UNK        -0.0832 
     15 C15        28.9266    0.2288   -0.9239 C.3       12 UNK         0.0240 
     16 S16        27.4949    0.1567   -2.0537 S.3       12 UNK        -0.2522 
     17 C17        27.9188    1.4020   -3.3192 C.3       12 UNK        -0.0967 
     18 CA         27.9246    0.8201   -4.7623 C.3       5 UNK         0.0660 
     19 N          26.6660    0.1573   -5.1221 N.am      5 UNK        -0.4015 
     20 C          25.4976    0.7505   -5.3992 C.2       4 UNK         0.4946 
     21 O          25.3247    1.9693   -5.3354 O.2       4 UNK        -0.5353 
     22 CA         24.3283   -0.1342   -5.8575 C.3       4 UNK         0.0277 
     23 CB         24.3439   -0.2913   -7.3886 C.3       4 UNK        -0.1981 
     24 N          24.2771   -1.4637   -5.2343 N.am      4 UNK        -0.4209 
     25 C          23.1334   -2.1513   -5.0752 C.2       3 UNK         0.4942 
     26 O          22.0228   -1.6861   -5.3381 O.2       3 UNK        -0.5208 
     27 CA         23.2038   -3.6099   -4.5801 C.3       3 UNK         0.0250 
     28 CB         22.9513   -4.5798   -5.7469 C.3       3 UNK        -0.1990 
     29 N          24.4705   -3.9624   -3.9437 N.am      3 UNK        -0.4232 
     30 C          24.8453   -3.5682   -2.7203 C.2       2 UNK         0.4993 
     31 O          24.1171   -2.9311   -1.9587 O.2       2 UNK        -0.5286 
     32 CA         26.2751   -3.9235   -2.2663 C.3       2 UNK         0.0209 
     33 CB         26.2458   -5.0253   -1.1943 C.3       2 UNK        -0.1931 
     34 N          27.2077   -4.3220   -3.3335 N.am      2 UNK        -0.4546 
     35 C          27.5430   -3.5695   -4.3901 C.2       1 UNK         0.5154 
     36 O          27.0257   -2.4774   -4.6316 O.2       1 UNK        -0.5181 
     37 C          28.3198    1.8409   -5.8561 C.2       5 UNK         0.5014 
     38 O          28.4266    1.4631   -7.0245 O.2       5 UNK        -0.5248 
     39 N          28.4843    3.1186   -5.4828 N.am      6 UNK        -0.4434 
     40 CA         28.8347    4.2363   -6.3652 C.3       6 UNK         0.0363 
     41 CB         29.0959    5.4836   -5.5047 C.3       6 UNK        -0.1936 
     42 C          27.8091    4.5502   -7.4739 C.2       6 UNK         0.5081 
     43 O          28.1587    5.2694   -8.4101 O.2       6 UNK        -0.5248 
     44 N          26.5799    4.0192   -7.3771 N.am      7 UNK        -0.4718 
     45 CA         25.5779    4.0945   -8.4467 C.3       7 UNK         0.0273 
     46 CB         24.1722    3.9006   -7.8546 C.3       7 UNK        -0.1935 
     47 C          25.8427    3.0972   -9.5942 C.2       7 UNK         0.5018 
     48 O          25.2263    3.2350  -10.6520 O.2       7 UNK        -0.5186 
     49 N          26.7433    2.1285   -9.3808 N.am      8 UNK        -0.4240 
     50 CA         27.2443    1.1911  -10.3840 C.3       8 UNK         0.0235 
     51 CB         26.7525   -0.2284  -10.0418 C.3       8 UNK        -0.2000 
     52 C          28.7769    1.3139  -10.4472 C.2       8 UNK         0.4941 
     53 O          29.3117    2.4021  -10.2236 O.2       8 UNK        -0.5273 
     54 N          29.4758    0.2094  -10.7417 N.am      9 UNK        -0.4262 
     55 CA         30.9356    0.1213  -10.8809 C.3       9 UNK         0.0264 
     56 CB         31.2754   -1.1346  -11.7067 C.3       9 UNK        -0.1955 
     57 C          31.7032    0.1681   -9.5390 C.2       9 UNK         0.5031 
     58 O          32.6538   -0.5963   -9.3522 O.2       9 UNK        -0.5390 
     59 N          31.2865    1.0640   -8.6331 N.am      10 UNK        -0.4204 
     60 CA         31.8372    1.3145   -7.2986 C.3       10 UNK         0.0237 
     61 CB         33.1643    2.0999   -7.4149 C.3       10 UNK        -0.1985 
     62 C          31.9261    0.0235   -6.4600 C.2       10 UNK         0.4970 
     63 O          30.9146   -0.6582   -6.2893 O.2       10 UNK        -0.4914 
     64 N          33.1279   -0.2883   -5.9685 N.am      11 UNK        -0.4285 
     65 CA         33.4474   -1.4988   -5.2021 C.3       11 UNK         0.1007 
     66 C          33.6819   -2.7641   -6.0822 C.2       11 UNK         0.5703 
     67 N          33.5181   -2.7142   -7.4002 N.am      11 UNK        -0.7361 
     68 O          34.0279   -3.8200   -5.5592 O.2       11 UNK        -0.4986 
     69 C69        34.6335   -1.2501   -4.2304 C.3       12 UNK        -0.0947 
     70 S70        34.3935    0.2069   -3.1538 S.3       12 UNK        -0.2240 
     71 C71        33.8906   -0.5567   -1.5821 C.3       12 UNK         0.0194 
     72 H72        26.1152   -3.0932   -8.8730 H         1 UNK         0.0906 
     73 H73        27.8619   -3.0182   -9.1352 H         1 UNK         0.0906 
     74 H74        26.9719   -4.4863   -9.5365 H         1 UNK         0.0906 
     75 H75        28.8990   -3.0451   -7.1401 H         1 UNK         0.3140 
     76 H76        28.5918   -5.2111   -5.3019 H         1 UNK         0.1085 
     77 H77        30.6421   -3.4710   -5.8304 H         1 UNK         0.0836 
     78 H78        30.0112   -2.6455   -4.4554 H         1 UNK         0.0836 
     79 H79        29.5772   -4.6178   -1.9692 H         1 UNK         0.0731 
     80 H80        31.2250   -4.9816   -1.5531 H         1 UNK         0.0731 
     81 H81        33.0216   -3.0895   -2.1234 H         1 UNK         0.1312 
     82 H82        31.5925    0.8286   -1.1139 H         1 UNK         0.1406 
     83 H83        28.8275   -2.4075   -1.5964 H         1 UNK         0.1631 
     84 H84        29.2592    1.2625   -0.8175 H         1 UNK         0.0717 
     85 H85        28.5909   -0.0809    0.0665 H         1 UNK         0.0717 
     86 H86        27.1926    2.2120   -3.2286 H         1 UNK         0.0934 
     87 H87        28.8960    1.8258   -3.0808 H         1 UNK         0.0934 
     88 H88        28.6884    0.0414   -4.7965 H         1 UNK         0.0739 
     89 H89        26.7369   -0.8582   -5.1477 H         1 UNK         0.3093 
     90 H90        23.4260    0.4171   -5.5831 H         1 UNK         0.0818 
     91 H91        23.4040   -0.7039   -7.7553 H         1 UNK         0.0819 
     92 H92        24.4933    0.6643   -7.8908 H         1 UNK         0.0819 
     93 H93        25.1456   -0.9579   -7.7047 H         1 UNK         0.0819 
     94 H94        25.1563   -1.8931   -4.9631 H         1 UNK         0.3041 
     95 H95        22.4039   -3.7433   -3.8484 H         1 UNK         0.0784 
     96 H96        21.9912   -4.3774   -6.2238 H         1 UNK         0.0793 
     97 H97        23.7209   -4.4946   -6.5154 H         1 UNK         0.0793 
     98 H98        22.9297   -5.6151   -5.4063 H         1 UNK         0.0793 
     99 H99        25.1358   -4.4734   -4.5074 H         1 UNK         0.3024 
    100 H100       26.6680   -3.0138   -1.8095 H         1 UNK         0.1171 
    101 H101       25.5844   -4.7536   -0.3701 H         1 UNK         0.0786 
    102 H102       27.2349   -5.1930   -0.7677 H         1 UNK         0.0786 
    103 H103       25.8877   -5.9723   -1.6000 H         1 UNK         0.0786 
    104 H104       27.6487   -5.2244   -3.2251 H         1 UNK         0.2977 
    105 H105       28.3296    3.3556   -4.5141 H         1 UNK         0.3127 
    106 H106       29.7657    3.9730   -6.8709 H         1 UNK         0.0770 
    107 H107       28.2044    5.7877   -4.9547 H         1 UNK         0.0814 
    108 H108       29.3998    6.3294   -6.1234 H         1 UNK         0.0814 
    109 H109       29.8957    5.3111   -4.7843 H         1 UNK         0.0814 
    110 H110       26.3504    3.4365   -6.5784 H         1 UNK         0.2983 
    111 H111       25.6140    5.0949   -8.8841 H         1 UNK         0.0947 
    112 H112       23.4065    4.0239   -8.6215 H         1 UNK         0.0806 
    113 H113       23.9669    4.6318   -7.0727 H         1 UNK         0.0806 
    114 H114       24.0420    2.9084   -7.4258 H         1 UNK         0.0806 
    115 H115       27.2495    2.1181   -8.4992 H         1 UNK         0.3000 
    116 H116       26.8718    1.4582  -11.3750 H         1 UNK         0.0850 
    117 H117       27.0446   -0.9543  -10.8011 H         1 UNK         0.0810 
    118 H118       27.1439   -0.5643   -9.0804 H         1 UNK         0.0810 
    119 H119       25.6644   -0.2578   -9.9921 H         1 UNK         0.0810 
    120 H120       28.9656   -0.6506  -10.8786 H         1 UNK         0.3040 
    121 H121       31.2702    0.9888  -11.4538 H         1 UNK         0.0766 
    122 H122       32.3455   -1.1931  -11.9108 H         1 UNK         0.0812 
    123 H123       30.7674   -1.1273  -12.6712 H         1 UNK         0.0812 
    124 H124       30.9932   -2.0488  -11.1830 H         1 UNK         0.0812 
    125 H125       30.4811    1.6276   -8.8934 H         1 UNK         0.3205 
    126 H126       31.1246    1.9571   -6.7837 H         1 UNK         0.0754 
    127 H127       33.5504    2.3793   -6.4335 H         1 UNK         0.0769 
    128 H128       33.0180    3.0269   -7.9696 H         1 UNK         0.0769 
    129 H129       33.9364    1.5293   -7.9330 H         1 UNK         0.0769 
    130 H130       33.9063    0.3191   -6.1742 H         1 UNK         0.2981 
    131 H131       32.5752   -1.7363   -4.5918 H         1 UNK         0.0541 
    132 H132       33.2286   -1.8628   -7.8702 H         1 UNK         0.3459 
    133 H133       33.6814   -3.5473   -7.9417 H         1 UNK         0.3459 
    134 H134       35.5539   -1.0939   -4.7958 H         1 UNK         0.0612 
    135 H135       34.8114   -2.1274   -3.6064 H         1 UNK         0.0612 
    136 H136       33.9848    0.1872   -0.7897 H         1 UNK         0.0624 
    137 H137       34.5826   -1.3599   -1.3241 H         1 UNK         0.0624 
@<TRIPOS>BOND
     1    1    2 1    
     2    1   72 1    
     3    1   73 1    
     4    1   74 1    
     5    2    3 2    
     6    2    4 am   BACKBONE|DICT|INTERRES
     7    4    5 1    
     8    4   75 1    
     9    5    6 1    
    10    5   35 1    
    11    5   76 1    
    12    6    7 1    
    13    6   77 1    
    14    6   78 1    
    15    7    8 1    
    16    8    9 1    
    17    8   79 1    
    18    8   80 1    
    19    9   10 ar   
    20    9   14 ar   
    21   10   11 ar   
    22   10   81 1    
    23   11   12 ar   
    24   11   71 1    
    25   12   13 ar   
    26   12   82 1    
    27   13   14 ar   
    28   13   15 1    
    29   14   83 1    
    30   15   16 1    
    31   15   84 1    
    32   15   85 1    
    33   16   17 1    
    34   17   18 1    
    35   17   86 1    
    36   17   87 1    
    37   18   19 1    
    38   18   37 1    
    39   18   88 1    
    40   19   20 am   BACKBONE|DICT|INTERRES
    41   19   89 1    
    42   20   21 2    
    43   20   22 1    
    44   22   23 1    
    45   22   24 1    
    46   22   90 1    
    47   23   91 1    
    48   23   92 1    
    49   23   93 1    
    50   24   25 am   BACKBONE|DICT|INTERRES
    51   24   94 1    
    52   25   26 2    
    53   25   27 1    
    54   27   28 1    
    55   27   29 1    
    56   27   95 1    
    57   28   96 1    
    58   28   97 1    
    59   28   98 1    
    60   29   30 am   BACKBONE|DICT|INTERRES
    61   29   99 1    
    62   30   31 2    
    63   30   32 1    
    64   32   33 1    
    65   32   34 1    
    66   32  100 1    
    67   33  101 1    
    68   33  102 1    
    69   33  103 1    
    70   34   35 am   BACKBONE|DICT|INTERRES
    71   34  104 1    
    72   35   36 2    
    73   37   38 2    
    74   37   39 am   BACKBONE|DICT|INTERRES
    75   39   40 1    
    76   39  105 1    
    77   40   41 1    
    78   40   42 1    
    79   40  106 1    
    80   41  107 1    
    81   41  108 1    
    82   41  109 1    
    83   42   43 2    
    84   42   44 am   BACKBONE|DICT|INTERRES
    85   44   45 1    
    86   44  110 1    
    87   45   46 1    
    88   45   47 1    
    89   45  111 1    
    90   46  112 1    
    91   46  113 1    
    92   46  114 1    
    93   47   48 2    
    94   47   49 am   BACKBONE|DICT|INTERRES
    95   49   50 1    
    96   49  115 1    
    97   50   51 1    
    98   50   52 1    
    99   50  116 1    
   100   51  117 1    
   101   51  118 1    
   102   51  119 1    
   103   52   53 2    
   104   52   54 am   BACKBONE|DICT|INTERRES
   105   54   55 1    
   106   54  120 1    
   107   55   56 1    
   108   55   57 1    
   109   55  121 1    
   110   56  122 1    
   111   56  123 1    
   112   56  124 1    
   113   57   58 2    
   114   57   59 am   BACKBONE|DICT|INTERRES
   115   59   60 1    
   116   59  125 1    
   117   60   61 1    
   118   60   62 1    
   119   60  126 1    
   120   61  127 1    
   121   61  128 1    
   122   61  129 1    
   123   62   63 2    
   124   62   64 am   BACKBONE|DICT|INTERRES
   125   64   65 1    
   126   64  130 1    
   127   65   66 1    
   128   65   69 1    
   129   65  131 1    
   130   66   67 am   BACKBONE|DICT|INTERRES
   131   66   68 2    
   132   67  132 1    
   133   67  133 1    
   134   69   70 1    
   135   69  134 1    
   136   69  135 1    
   137   70   71 1    
   138   71  136 1    
   139   71  137 1    
@<TRIPOS>SUBSTRUCTURE
     1 UNK         1 GROUP             0       ****    0 ROOT    
