@<TRIPOS>MOLECULE
3R137
137   139    1
SMALL
USER_CHARGES


@<TRIPOS>ATOM
      1 CA         23.7152   -6.1344   -2.9558 C.3       0 UNK        -0.2020 
      2 C          24.7055   -5.1914   -2.2888 C.2       0 UNK         0.4855 
      3 O          24.2879   -4.2369   -1.6323 O.2       0 UNK        -0.5197 
      4 N          26.0095   -5.4582   -2.4558 N.am      1 UNK        -0.4892 
      5 CA         27.1464   -4.7072   -1.9055 C.3       1 UNK         0.0835 
      6 C6         28.4832   -5.3684   -2.3376 C.3       12 UNK        -0.0855 
      7 S7         29.9806   -4.5287   -1.7081 S.3       12 UNK        -0.2931 
      8 C8         30.6073   -3.7730   -3.2436 C.3       12 UNK         0.0378 
      9 C9         31.3558   -2.4816   -2.9633 C.ar      12 UNK        -0.0802 
     10 C10        32.7517   -2.4652   -2.9432 C.ar      12 UNK        -0.0944 
     11 C11        33.4467   -1.2694   -2.7280 C.ar      12 UNK        -0.0787 
     12 C12        32.7241   -0.0916   -2.5096 C.ar      12 UNK        -0.0862 
     13 C13        31.3251   -0.0946   -2.5058 C.ar      12 UNK        -0.0733 
     14 C14        30.6479   -1.2978   -2.7372 C.ar      12 UNK        -0.0832 
     15 C15        30.5765    1.2012   -2.1933 C.3       12 UNK         0.0240 
     16 S16        29.0180    1.4264   -3.1137 S.3       12 UNK        -0.2522 
     17 C17        29.6283    1.6711   -4.8110 C.3       12 UNK        -0.0967 
     18 CA         28.5479    1.4951   -5.9050 C.3       5 UNK         0.0660 
     19 N          27.9019    0.1786   -5.8870 N.am      5 UNK        -0.4015 
     20 C          27.2568   -0.3347   -6.9440 C.2       4 UNK         0.4946 
     21 O          27.1411    0.2532   -8.0193 O.2       4 UNK        -0.5353 
     22 CA         26.6024   -1.7114   -6.7676 C.3       4 UNK         0.0277 
     23 CB         27.6615   -2.8237   -6.6770 C.3       4 UNK        -0.1981 
     24 N          25.7300   -1.7495   -5.5936 N.am      4 UNK        -0.4209 
     25 C          24.5472   -1.1182   -5.5133 C.2       3 UNK         0.4942 
     26 O          24.0633   -0.4620   -6.4343 O.2       3 UNK        -0.5208 
     27 CA         23.7683   -1.2129   -4.1862 C.3       3 UNK         0.0250 
     28 CB         22.7603   -2.3703   -4.2451 C.3       3 UNK        -0.1990 
     29 N          24.6223   -1.3720   -3.0073 N.am      3 UNK        -0.4232 
     30 C          25.5654   -0.4967   -2.6284 C.2       2 UNK         0.4993 
     31 O          25.7561    0.5812   -3.1906 O.2       2 UNK        -0.5286 
     32 CA         26.4939   -0.9160   -1.4737 C.3       2 UNK         0.0209 
     33 CB         25.9973   -0.3241   -0.1457 C.3       2 UNK        -0.1931 
     34 N          26.6731   -2.3656   -1.3241 N.am      2 UNK        -0.4546 
     35 C          27.0679   -3.2127   -2.2870 C.2       1 UNK         0.5154 
     36 O          27.3162   -2.8657   -3.4432 O.2       1 UNK        -0.5181 
     37 C          27.5257    2.6508   -5.9527 C.2       5 UNK         0.5014 
     38 O          27.8105    3.6647   -6.5909 O.2       5 UNK        -0.5248 
     39 N          26.3308    2.4673   -5.3656 N.am      6 UNK        -0.4434 
     40 CA         25.1904    3.3810   -5.5160 C.3       6 UNK         0.0363 
     41 CB         24.0573    2.9627   -4.5673 C.3       6 UNK        -0.1936 
     42 C          24.6702    3.4719   -6.9644 C.2       6 UNK         0.5081 
     43 O          24.2196    4.5403   -7.3771 O.2       6 UNK        -0.5248 
     44 N          24.7772    2.3705   -7.7210 N.am      7 UNK        -0.4718 
     45 CA         24.4881    2.2977   -9.1571 C.3       7 UNK         0.0273 
     46 CB         24.0149    0.8736   -9.4977 C.3       7 UNK        -0.1935 
     47 C          25.6880    2.7085  -10.0370 C.2       7 UNK         0.5018 
     48 O          25.5872    2.6138  -11.2610 O.2       7 UNK        -0.5186 
     49 N          26.7900    3.1524   -9.4128 N.am      8 UNK        -0.4240 
     50 CA         28.0530    3.5944  -10.0121 C.3       8 UNK         0.0235 
     51 CB         27.8435    4.8337  -10.9099 C.3       8 UNK        -0.2000 
     52 C          28.8507    2.4728  -10.7063 C.2       8 UNK         0.4941 
     53 O          29.6368    2.7652  -11.6106 O.2       8 UNK        -0.5273 
     54 N          28.6771    1.2191  -10.2636 N.am      9 UNK        -0.4262 
     55 CA         29.5280    0.0943  -10.6572 C.3       9 UNK         0.0264 
     56 CB         28.7517   -1.2213  -10.4832 C.3       9 UNK        -0.1955 
     57 C          30.8233    0.0840   -9.8253 C.2       9 UNK         0.5031 
     58 O          30.8862    0.7060   -8.7605 O.2       9 UNK        -0.5390 
     59 N          31.8368   -0.6288  -10.3299 N.am      10 UNK        -0.4204 
     60 CA         33.1449   -0.7841   -9.6899 C.3       10 UNK         0.0237 
     61 CB         34.1236   -1.3956  -10.7073 C.3       10 UNK        -0.1985 
     62 C          33.0874   -1.6473   -8.4161 C.2       10 UNK         0.4970 
     63 O          32.1959   -2.4882   -8.2766 O.2       10 UNK        -0.4914 
     64 N          34.0793   -1.4454   -7.5397 N.am      11 UNK        -0.4285 
     65 CA         34.3135   -2.2298   -6.3164 C.3       11 UNK         0.1007 
     66 C          34.6041   -3.7379   -6.5880 C.2       11 UNK         0.5703 
     67 N          35.2768   -4.0847   -7.6801 N.am      11 UNK        -0.7361 
     68 O          34.1945   -4.6006   -5.8150 O.2       11 UNK        -0.4986 
     69 C69        35.4204   -1.5458   -5.4644 C.3       12 UNK        -0.0947 
     70 S70        35.7965   -2.3422   -3.8641 S.3       12 UNK        -0.2240 
     71 C71        34.9726   -1.2338   -2.6722 C.3       12 UNK         0.0194 
     72 H72        22.9991   -5.5729   -3.5542 H         1 UNK         0.0906 
     73 H73        24.2105   -6.8528   -3.6087 H         1 UNK         0.0906 
     74 H74        23.1614   -6.6887   -2.1987 H         1 UNK         0.0906 
     75 H75        26.2634   -6.2515   -3.0273 H         1 UNK         0.3140 
     76 H76        27.0811   -4.7810   -0.8180 H         1 UNK         0.1085 
     77 H77        28.5344   -5.4454   -3.4255 H         1 UNK         0.0836 
     78 H78        28.5127   -6.3963   -1.9723 H         1 UNK         0.0836 
     79 H79        29.7881   -3.5571   -3.9296 H         1 UNK         0.0731 
     80 H80        31.2498   -4.4893   -3.7586 H         1 UNK         0.0731 
     81 H81        33.2952   -3.3866   -3.1015 H         1 UNK         0.1312 
     82 H82        33.2556    0.8310   -2.3187 H         1 UNK         0.1406 
     83 H83        29.5673   -1.3233   -2.7331 H         1 UNK         0.1631 
     84 H84        31.2136    2.0667   -2.3824 H         1 UNK         0.0717 
     85 H85        30.3492    1.2141   -1.1267 H         1 UNK         0.0717 
     86 H86        30.0868    2.6595   -4.8806 H         1 UNK         0.0934 
     87 H87        30.4356    0.9602   -4.9956 H         1 UNK         0.0934 
     88 H88        29.0861    1.5548   -6.8543 H         1 UNK         0.0739 
     89 H89        27.9260   -0.3317   -5.0160 H         1 UNK         0.3093 
     90 H90        25.9886   -1.9043   -7.6503 H         1 UNK         0.0818 
     91 H91        28.3561   -2.6630   -5.8523 H         1 UNK         0.0819 
     92 H92        27.1992   -3.8009   -6.5366 H         1 UNK         0.0819 
     93 H93        28.2549   -2.8760   -7.5897 H         1 UNK         0.0819 
     94 H94        26.0950   -2.2307   -4.7752 H         1 UNK         0.3041 
     95 H95        23.2122   -0.2820   -4.0621 H         1 UNK         0.0784 
     96 H96        22.0551   -2.2305   -5.0657 H         1 UNK         0.0793 
     97 H97        23.2594   -3.3259   -4.4049 H         1 UNK         0.0793 
     98 H98        22.1787   -2.4424   -3.3257 H         1 UNK         0.0793 
     99 H99        24.5391   -2.2418   -2.4919 H         1 UNK         0.3024 
    100 H100       27.4764   -0.4953   -1.6854 H         1 UNK         0.1171 
    101 H101       26.7027   -0.5145    0.6633 H         1 UNK         0.0786 
    102 H102       25.8802    0.7582   -0.2216 H         1 UNK         0.0786 
    103 H103       25.0305   -0.7379    0.1439 H         1 UNK         0.0786 
    104 H104       26.4379   -2.7495   -0.4199 H         1 UNK         0.2977 
    105 H105       26.1860    1.6502   -4.7765 H         1 UNK         0.3127 
    106 H106       25.5262    4.3785   -5.2245 H         1 UNK         0.0770 
    107 H107       23.6857    1.9656   -4.8033 H         1 UNK         0.0814 
    108 H108       23.2139    3.6508   -4.6386 H         1 UNK         0.0814 
    109 H109       24.3880    2.9619   -3.5286 H         1 UNK         0.0814 
    110 H110       25.1390    1.5228   -7.3008 H         1 UNK         0.2983 
    111 H111       23.6737    2.9866   -9.3911 H         1 UNK         0.0947 
    112 H112       23.7315    0.7919  -10.5478 H         1 UNK         0.0806 
    113 H113       23.1430    0.5945   -8.9061 H         1 UNK         0.0806 
    114 H114       24.7941    0.1339   -9.3115 H         1 UNK         0.0806 
    115 H115       26.7736    3.1768   -8.4000 H         1 UNK         0.3000 
    116 H116       28.6764    3.9096   -9.1744 H         1 UNK         0.0850 
    117 H117       28.7990    5.2638  -11.2124 H         1 UNK         0.0810 
    118 H118       27.2912    5.6141  -10.3865 H         1 UNK         0.0810 
    119 H119       27.2976    4.5875  -11.8209 H         1 UNK         0.0810 
    120 H120       28.0472    1.0468   -9.4823 H         1 UNK         0.3040 
    121 H121       29.7903    0.1992  -11.7123 H         1 UNK         0.0766 
    122 H122       27.7864   -1.1854  -10.9884 H         1 UNK         0.0812 
    123 H123       28.5727   -1.4456   -9.4333 H         1 UNK         0.0812 
    124 H124       29.3062   -2.0623  -10.9007 H         1 UNK         0.0812 
    125 H125       31.6910   -1.1416  -11.1872 H         1 UNK         0.3205 
    126 H126       33.5029    0.2108   -9.4156 H         1 UNK         0.0754 
    127 H127       35.1275   -1.4793  -10.2890 H         1 UNK         0.0769 
    128 H128       34.2019   -0.7794  -11.6035 H         1 UNK         0.0769 
    129 H129       33.8144   -2.3961  -11.0135 H         1 UNK         0.0769 
    130 H130       34.7718   -0.7415   -7.7474 H         1 UNK         0.2981 
    131 H131       33.3859   -2.1913   -5.7427 H         1 UNK         0.0541 
    132 H132       35.6133   -3.3857   -8.3218 H         1 UNK         0.3459 
    133 H133       35.4539   -5.0605   -7.8587 H         1 UNK         0.3459 
    134 H134       36.3521   -1.5086   -6.0316 H         1 UNK         0.0612 
    135 H135       35.1476   -0.5061   -5.2765 H         1 UNK         0.0612 
    136 H136       35.2831   -1.5208   -1.6670 H         1 UNK         0.0624 
    137 H137       35.3412   -0.2190   -2.8300 H         1 UNK         0.0624 
@<TRIPOS>BOND
     1    1    2 1    
     2    1   72 1    
     3    1   73 1    
     4    1   74 1    
     5    2    3 2    
     6    2    4 am   BACKBONE|DICT|INTERRES
     7    4    5 1    
     8    4   75 1    
     9    5    6 1    
    10    5   35 1    
    11    5   76 1    
    12    6    7 1    
    13    6   77 1    
    14    6   78 1    
    15    7    8 1    
    16    8    9 1    
    17    8   79 1    
    18    8   80 1    
    19    9   10 ar   
    20    9   14 ar   
    21   10   11 ar   
    22   10   81 1    
    23   11   12 ar   
    24   11   71 1    
    25   12   13 ar   
    26   12   82 1    
    27   13   14 ar   
    28   13   15 1    
    29   14   83 1    
    30   15   16 1    
    31   15   84 1    
    32   15   85 1    
    33   16   17 1    
    34   17   18 1    
    35   17   86 1    
    36   17   87 1    
    37   18   19 1    
    38   18   37 1    
    39   18   88 1    
    40   19   20 am   BACKBONE|DICT|INTERRES
    41   19   89 1    
    42   20   21 2    
    43   20   22 1    
    44   22   23 1    
    45   22   24 1    
    46   22   90 1    
    47   23   91 1    
    48   23   92 1    
    49   23   93 1    
    50   24   25 am   BACKBONE|DICT|INTERRES
    51   24   94 1    
    52   25   26 2    
    53   25   27 1    
    54   27   28 1    
    55   27   29 1    
    56   27   95 1    
    57   28   96 1    
    58   28   97 1    
    59   28   98 1    
    60   29   30 am   BACKBONE|DICT|INTERRES
    61   29   99 1    
    62   30   31 2    
    63   30   32 1    
    64   32   33 1    
    65   32   34 1    
    66   32  100 1    
    67   33  101 1    
    68   33  102 1    
    69   33  103 1    
    70   34   35 am   BACKBONE|DICT|INTERRES
    71   34  104 1    
    72   35   36 2    
    73   37   38 2    
    74   37   39 am   BACKBONE|DICT|INTERRES
    75   39   40 1    
    76   39  105 1    
    77   40   41 1    
    78   40   42 1    
    79   40  106 1    
    80   41  107 1    
    81   41  108 1    
    82   41  109 1    
    83   42   43 2    
    84   42   44 am   BACKBONE|DICT|INTERRES
    85   44   45 1    
    86   44  110 1    
    87   45   46 1    
    88   45   47 1    
    89   45  111 1    
    90   46  112 1    
    91   46  113 1    
    92   46  114 1    
    93   47   48 2    
    94   47   49 am   BACKBONE|DICT|INTERRES
    95   49   50 1    
    96   49  115 1    
    97   50   51 1    
    98   50   52 1    
    99   50  116 1    
   100   51  117 1    
   101   51  118 1    
   102   51  119 1    
   103   52   53 2    
   104   52   54 am   BACKBONE|DICT|INTERRES
   105   54   55 1    
   106   54  120 1    
   107   55   56 1    
   108   55   57 1    
   109   55  121 1    
   110   56  122 1    
   111   56  123 1    
   112   56  124 1    
   113   57   58 2    
   114   57   59 am   BACKBONE|DICT|INTERRES
   115   59   60 1    
   116   59  125 1    
   117   60   61 1    
   118   60   62 1    
   119   60  126 1    
   120   61  127 1    
   121   61  128 1    
   122   61  129 1    
   123   62   63 2    
   124   62   64 am   BACKBONE|DICT|INTERRES
   125   64   65 1    
   126   64  130 1    
   127   65   66 1    
   128   65   69 1    
   129   65  131 1    
   130   66   67 am   BACKBONE|DICT|INTERRES
   131   66   68 2    
   132   67  132 1    
   133   67  133 1    
   134   69   70 1    
   135   69  134 1    
   136   69  135 1    
   137   70   71 1    
   138   71  136 1    
   139   71  137 1    
@<TRIPOS>SUBSTRUCTURE
     1 UNK         1 GROUP             0       ****    0 ROOT    
