@<TRIPOS>MOLECULE
3R137
137   139    1
SMALL
USER_CHARGES


@<TRIPOS>ATOM
      1 CA         26.7622   -5.0381   -3.0131 C.3       0 UNK        -0.2020 
      2 C          26.2683   -5.7947   -1.7854 C.2       0 UNK         0.4855 
      3 O          25.5848   -6.8036   -1.9456 O.2       0 UNK        -0.5197 
      4 N          26.5577   -5.3698   -0.5452 N.am      1 UNK        -0.4892 
      5 CA         27.3360   -4.2001   -0.0864 C.3       1 UNK         0.0835 
      6 C6         28.7799   -4.0936   -0.6560 C.3       12 UNK        -0.0855 
      7 S7         29.7237   -5.6515   -0.5372 S.3       12 UNK        -0.2931 
      8 C8         31.4214   -5.0726   -0.8800 C.3       12 UNK         0.0378 
      9 C9         31.6017   -4.3798   -2.2313 C.ar      12 UNK        -0.0802 
     10 C10        32.5063   -3.3175   -2.3354 C.ar      12 UNK        -0.0944 
     11 C11        32.7180   -2.6758   -3.5589 C.ar      12 UNK        -0.0787 
     12 C12        32.0175   -3.1049   -4.6886 C.ar      12 UNK        -0.0862 
     13 C13        31.0815   -4.1378   -4.5955 C.ar      12 UNK        -0.0733 
     14 C14        30.8995   -4.7903   -3.3726 C.ar      12 UNK        -0.0832 
     15 C15        30.2525   -4.5326   -5.8107 C.3       12 UNK         0.0240 
     16 S16        28.5810   -3.8010   -5.7501 S.3       12 UNK        -0.2522 
     17 C17        28.9415   -2.0155   -5.8216 C.3       12 UNK        -0.0967 
     18 CA         28.0041   -1.2623   -6.7916 C.3       5 UNK         0.0660 
     19 N          26.6116   -1.2223   -6.3306 N.am      5 UNK        -0.4015 
     20 C          25.5827   -0.8487   -7.1075 C.2       4 UNK         0.4946 
     21 O          25.6997   -0.5468   -8.2947 O.2       4 UNK        -0.5353 
     22 CA         24.1986   -0.7340   -6.4428 C.3       4 UNK         0.0277 
     23 CB         23.5039   -2.1044   -6.4037 C.3       4 UNK        -0.1981 
     24 N          24.2452   -0.1703   -5.0909 N.am      4 UNK        -0.4209 
     25 C          24.7797    1.0141   -4.7613 C.2       3 UNK         0.4942 
     26 O          25.2232    1.8044   -5.5933 O.2       3 UNK        -0.5208 
     27 CA         24.8793    1.3859   -3.2677 C.3       3 UNK         0.0250 
     28 CB         24.0540    2.6504   -2.9748 C.3       3 UNK        -0.1990 
     29 N          24.4977    0.3377   -2.3117 N.am      3 UNK        -0.4232 
     30 C          25.0803   -0.8608   -2.1666 C.2       2 UNK         0.4993 
     31 O          25.9800   -1.2795   -2.9011 O.2       2 UNK        -0.5286 
     32 CA         24.4976   -1.7499   -1.0507 C.3       2 UNK         0.0209 
     33 CB         23.1029   -2.2666   -1.4481 C.3       2 UNK        -0.1931 
     34 N          25.3414   -2.9044   -0.7393 N.am      2 UNK        -0.4546 
     35 C          26.5730   -2.8608   -0.2122 C.2       1 UNK         0.5154 
     36 O          27.1012   -1.8220    0.1885 O.2       1 UNK        -0.5181 
     37 C          28.5554    0.1474   -7.0799 C.2       5 UNK         0.5014 
     38 O          29.2902    0.3128   -8.0530 O.2       5 UNK        -0.5248 
     39 N          28.1927    1.1420   -6.2573 N.am      6 UNK        -0.4434 
     40 CA         28.5728    2.5418   -6.4625 C.3       6 UNK         0.0363 
     41 CB         28.2869    3.3637   -5.1960 C.3       6 UNK        -0.1936 
     42 C          27.8836    3.1464   -7.6961 C.2       6 UNK         0.5081 
     43 O          28.5444    3.8183   -8.4868 O.2       6 UNK        -0.5248 
     44 N          26.5901    2.8433   -7.8770 N.am      7 UNK        -0.4718 
     45 CA         25.7977    3.2120   -9.0552 C.3       7 UNK         0.0273 
     46 CB         24.3276    2.8289   -8.8239 C.3       7 UNK        -0.1935 
     47 C          26.3277    2.5865  -10.3589 C.2       7 UNK         0.5018 
     48 O          26.3283    3.2539  -11.3936 O.2       7 UNK        -0.5186 
     49 N          26.8072    1.3375  -10.2771 N.am      8 UNK        -0.4240 
     50 CA         27.4798    0.6190  -11.3637 C.3       8 UNK         0.0235 
     51 CB         27.4400   -0.8884  -11.0590 C.3       8 UNK        -0.2000 
     52 C          28.9329    1.0733  -11.6137 C.2       8 UNK         0.4941 
     53 O          29.5366    0.6036  -12.5791 O.2       8 UNK        -0.5273 
     54 N          29.4778    1.9421  -10.7464 N.am      9 UNK        -0.4262 
     55 CA         30.8606    2.4377  -10.7233 C.3       9 UNK         0.0264 
     56 CB         31.1835    3.2619  -11.9880 C.3       9 UNK        -0.1955 
     57 C          31.9061    1.3397  -10.4347 C.2       9 UNK         0.5031 
     58 O          33.0635    1.4740  -10.8367 O.2       9 UNK        -0.5390 
     59 N          31.4923    0.2894   -9.7142 N.am      10 UNK        -0.4204 
     60 CA         32.3504   -0.7772   -9.1957 C.3       10 UNK         0.0237 
     61 CB         31.5503   -2.0913   -9.1675 C.3       10 UNK        -0.1985 
     62 C          32.8954   -0.4461   -7.7940 C.2       10 UNK         0.4970 
     63 O          33.8137   -1.1266   -7.3377 O.2       10 UNK        -0.4914 
     64 N          32.3293    0.5753   -7.1406 N.am      11 UNK        -0.4285 
     65 CA         32.7339    1.1008   -5.8335 C.3       11 UNK         0.1007 
     66 C          32.6661    2.6518   -5.8111 C.2       11 UNK         0.5703 
     67 N          33.0578    3.2744   -4.7086 N.am      11 UNK        -0.7361 
     68 O          32.2626    3.2969   -6.7779 O.2       11 UNK        -0.4986 
     69 C69        31.9302    0.4343   -4.6791 C.3       12 UNK        -0.0947 
     70 S70        32.9622    0.0779   -3.2180 S.3       12 UNK        -0.2240 
     71 C71        33.7098   -1.5253   -3.6606 C.3       12 UNK         0.0194 
     72 H72        26.1273   -5.2536   -3.8722 H         1 UNK         0.0906 
     73 H73        27.7728   -5.3578   -3.2613 H         1 UNK         0.0906 
     74 H74        26.7614   -3.9586   -2.8778 H         1 UNK         0.0906 
     75 H75        26.1954   -5.9271    0.2169 H         1 UNK         0.3140 
     76 H76        27.4419   -4.3499    0.9895 H         1 UNK         0.1085 
     77 H77        29.3350   -3.3277   -0.1105 H         1 UNK         0.0836 
     78 H78        28.7747   -3.7608   -1.6940 H         1 UNK         0.0836 
     79 H79        31.7223   -4.4057   -0.0702 H         1 UNK         0.0731 
     80 H80        32.0952   -5.9292   -0.8389 H         1 UNK         0.0731 
     81 H81        33.0535   -2.9884   -1.4623 H         1 UNK         0.1312 
     82 H82        32.1863   -2.6160   -5.6379 H         1 UNK         0.1406 
     83 H83        30.1935   -5.6063   -3.3086 H         1 UNK         0.1631 
     84 H84        30.1615   -5.6189   -5.8545 H         1 UNK         0.0717 
     85 H85        30.7486   -4.2305   -6.7345 H         1 UNK         0.0717 
     86 H86        28.8858   -1.6022   -4.8124 H         1 UNK         0.0934 
     87 H87        29.9746   -1.8934   -6.1466 H         1 UNK         0.0934 
     88 H88        28.0154   -1.7976   -7.7438 H         1 UNK         0.0739 
     89 H89        26.4401   -1.4567   -5.3612 H         1 UNK         0.3093 
     90 H90        23.5957   -0.0608   -7.0555 H         1 UNK         0.0818 
     91 H91        23.4430   -2.5385   -7.4028 H         1 UNK         0.0819 
     92 H92        24.0410   -2.8136   -5.7723 H         1 UNK         0.0819 
     93 H93        22.4846   -2.0226   -6.0261 H         1 UNK         0.0819 
     94 H94        23.9219   -0.7620   -4.3404 H         1 UNK         0.3041 
     95 H95        25.9296    1.6194   -3.0818 H         1 UNK         0.0784 
     96 H96        24.3440    3.4712   -3.6328 H         1 UNK         0.0793 
     97 H97        22.9870    2.4779   -3.1215 H         1 UNK         0.0793 
     98 H98        24.2028    2.9952   -1.9513 H         1 UNK         0.0793 
     99 H99        23.7436    0.5769   -1.6834 H         1 UNK         0.3024 
    100 H100       24.4124   -1.1437   -0.1457 H         1 UNK         0.1171 
    101 H101       23.1407   -2.8744   -2.3534 H         1 UNK         0.0786 
    102 H102       22.6656   -2.8749   -0.6559 H         1 UNK         0.0786 
    103 H103       22.4097   -1.4456   -1.6356 H         1 UNK         0.0786 
    104 H104       24.9900   -3.8080   -1.0196 H         1 UNK         0.2977 
    105 H105       27.5382    0.9507   -5.5131 H         1 UNK         0.3127 
    106 H106       29.6487    2.5727   -6.6422 H         1 UNK         0.0770 
    107 H107       28.6185    4.3950   -5.3236 H         1 UNK         0.0814 
    108 H108       27.2240    3.3936   -4.9563 H         1 UNK         0.0814 
    109 H109       28.8163    2.9596   -4.3331 H         1 UNK         0.0814 
    110 H110       26.1087    2.3272   -7.1426 H         1 UNK         0.2983 
    111 H111       25.8560    4.2971   -9.1644 H         1 UNK         0.0947 
    112 H112       24.2056    1.7520   -8.7060 H         1 UNK         0.0806 
    113 H113       23.7067    3.1378   -9.6658 H         1 UNK         0.0806 
    114 H114       23.9280    3.3096   -7.9307 H         1 UNK         0.0806 
    115 H115       26.6845    0.8293   -9.4060 H         1 UNK         0.3000 
    116 H116       26.9241    0.7950  -12.2871 H         1 UNK         0.0850 
    117 H117       27.8809   -1.4669  -11.8719 H         1 UNK         0.0810 
    118 H118       26.4164   -1.2409  -10.9306 H         1 UNK         0.0810 
    119 H119       27.9934   -1.1287  -10.1507 H         1 UNK         0.0810 
    120 H120       28.8968    2.2748   -9.9855 H         1 UNK         0.3040 
    121 H121       30.9122    3.1189   -9.8724 H         1 UNK         0.0766 
    122 H122       32.1466    3.7644  -11.8914 H         1 UNK         0.0812 
    123 H123       30.4332    4.0336  -12.1601 H         1 UNK         0.0812 
    124 H124       31.2338    2.6361  -12.8793 H         1 UNK         0.0812 
    125 H125       30.5348    0.2928   -9.3626 H         1 UNK         0.3205 
    126 H126       33.2071   -0.9126   -9.8592 H         1 UNK         0.0754 
    127 H127       32.1649   -2.9168   -8.8059 H         1 UNK         0.0769 
    128 H128       31.2006   -2.3608  -10.1643 H         1 UNK         0.0769 
    129 H129       30.6787   -2.0235   -8.5167 H         1 UNK         0.0769 
    130 H130       31.6019    1.1033   -7.6023 H         1 UNK         0.2981 
    131 H131       33.7943    0.8692   -5.7168 H         1 UNK         0.0541 
    132 H132       33.0233    4.2809   -4.6731 H         1 UNK         0.3459 
    133 H133       33.3763    2.7511   -3.9074 H         1 UNK         0.3459 
    134 H134       31.4749   -0.4963   -5.0074 H         1 UNK         0.0612 
    135 H135       31.0880    1.0560   -4.3689 H         1 UNK         0.0612 
    136 H136       34.1301   -1.4684   -4.6653 H         1 UNK         0.0624 
    137 H137       34.5520   -1.7114   -2.9926 H         1 UNK         0.0624 
@<TRIPOS>BOND
     1    1    2 1    
     2    1   72 1    
     3    1   73 1    
     4    1   74 1    
     5    2    3 2    
     6    2    4 am   BACKBONE|DICT|INTERRES
     7    4    5 1    
     8    4   75 1    
     9    5    6 1    
    10    5   35 1    
    11    5   76 1    
    12    6    7 1    
    13    6   77 1    
    14    6   78 1    
    15    7    8 1    
    16    8    9 1    
    17    8   79 1    
    18    8   80 1    
    19    9   10 ar   
    20    9   14 ar   
    21   10   11 ar   
    22   10   81 1    
    23   11   12 ar   
    24   11   71 1    
    25   12   13 ar   
    26   12   82 1    
    27   13   14 ar   
    28   13   15 1    
    29   14   83 1    
    30   15   16 1    
    31   15   84 1    
    32   15   85 1    
    33   16   17 1    
    34   17   18 1    
    35   17   86 1    
    36   17   87 1    
    37   18   19 1    
    38   18   37 1    
    39   18   88 1    
    40   19   20 am   BACKBONE|DICT|INTERRES
    41   19   89 1    
    42   20   21 2    
    43   20   22 1    
    44   22   23 1    
    45   22   24 1    
    46   22   90 1    
    47   23   91 1    
    48   23   92 1    
    49   23   93 1    
    50   24   25 am   BACKBONE|DICT|INTERRES
    51   24   94 1    
    52   25   26 2    
    53   25   27 1    
    54   27   28 1    
    55   27   29 1    
    56   27   95 1    
    57   28   96 1    
    58   28   97 1    
    59   28   98 1    
    60   29   30 am   BACKBONE|DICT|INTERRES
    61   29   99 1    
    62   30   31 2    
    63   30   32 1    
    64   32   33 1    
    65   32   34 1    
    66   32  100 1    
    67   33  101 1    
    68   33  102 1    
    69   33  103 1    
    70   34   35 am   BACKBONE|DICT|INTERRES
    71   34  104 1    
    72   35   36 2    
    73   37   38 2    
    74   37   39 am   BACKBONE|DICT|INTERRES
    75   39   40 1    
    76   39  105 1    
    77   40   41 1    
    78   40   42 1    
    79   40  106 1    
    80   41  107 1    
    81   41  108 1    
    82   41  109 1    
    83   42   43 2    
    84   42   44 am   BACKBONE|DICT|INTERRES
    85   44   45 1    
    86   44  110 1    
    87   45   46 1    
    88   45   47 1    
    89   45  111 1    
    90   46  112 1    
    91   46  113 1    
    92   46  114 1    
    93   47   48 2    
    94   47   49 am   BACKBONE|DICT|INTERRES
    95   49   50 1    
    96   49  115 1    
    97   50   51 1    
    98   50   52 1    
    99   50  116 1    
   100   51  117 1    
   101   51  118 1    
   102   51  119 1    
   103   52   53 2    
   104   52   54 am   BACKBONE|DICT|INTERRES
   105   54   55 1    
   106   54  120 1    
   107   55   56 1    
   108   55   57 1    
   109   55  121 1    
   110   56  122 1    
   111   56  123 1    
   112   56  124 1    
   113   57   58 2    
   114   57   59 am   BACKBONE|DICT|INTERRES
   115   59   60 1    
   116   59  125 1    
   117   60   61 1    
   118   60   62 1    
   119   60  126 1    
   120   61  127 1    
   121   61  128 1    
   122   61  129 1    
   123   62   63 2    
   124   62   64 am   BACKBONE|DICT|INTERRES
   125   64   65 1    
   126   64  130 1    
   127   65   66 1    
   128   65   69 1    
   129   65  131 1    
   130   66   67 am   BACKBONE|DICT|INTERRES
   131   66   68 2    
   132   67  132 1    
   133   67  133 1    
   134   69   70 1    
   135   69  134 1    
   136   69  135 1    
   137   70   71 1    
   138   71  136 1    
   139   71  137 1    
@<TRIPOS>SUBSTRUCTURE
     1 UNK         1 GROUP             0       ****    0 ROOT    
