@<TRIPOS>MOLECULE
3R137
137   139    1
SMALL
USER_CHARGES


@<TRIPOS>ATOM
      1 CA         29.1501   -0.6922   -1.2124 C.3       0 UNK        -0.2020 
      2 C          29.5888   -1.6355   -0.0914 C.2       0 UNK         0.4855 
      3 O          30.3897   -1.2313    0.7489 O.2       0 UNK        -0.5197 
      4 N          29.1203   -2.8918   -0.0314 N.am      1 UNK        -0.4892 
      5 CA         28.1162   -3.5170   -0.9026 C.3       1 UNK         0.0835 
      6 C6         28.0064   -5.0459   -0.6604 C.3       12 UNK        -0.0855 
      7 S7         29.4070   -6.1376   -1.1327 S.3       12 UNK        -0.2931 
      8 C8         30.8505   -5.1111   -1.5976 C.3       12 UNK         0.0378 
      9 C9         30.6789   -4.2873   -2.8714 C.ar      12 UNK        -0.0802 
     10 C10        31.2302   -3.0026   -2.9297 C.ar      12 UNK        -0.0944 
     11 C11        31.0684   -2.2038   -4.0646 C.ar      12 UNK        -0.0787 
     12 C12        30.3440   -2.7054   -5.1489 C.ar      12 UNK        -0.0862 
     13 C13        29.8297   -4.0040   -5.1302 C.ar      12 UNK        -0.0733 
     14 C14        30.0020   -4.7926   -3.9887 C.ar      12 UNK        -0.0832 
     15 C15        29.1296   -4.5602   -6.3639 C.3       12 UNK         0.0240 
     16 S16        27.3806   -4.9859   -6.0831 S.3       12 UNK        -0.2522 
     17 C17        26.6619   -3.4193   -5.4962 C.3       12 UNK        -0.0967 
     18 CA         26.3249   -2.4172   -6.6357 C.3       5 UNK         0.0660 
     19 N          25.0344   -1.7591   -6.4205 N.am      5 UNK        -0.4015 
     20 C          24.3888   -1.0030   -7.3198 C.2       4 UNK         0.4946 
     21 O          24.7759   -0.8250   -8.4746 O.2       4 UNK        -0.5353 
     22 CA         23.1087   -0.2993   -6.8343 C.3       4 UNK         0.0277 
     23 CB         21.8848   -1.2062   -7.0387 C.3       4 UNK        -0.1981 
     24 N          23.1831    0.1162   -5.4293 N.am      4 UNK        -0.4209 
     25 C          24.0067    1.0690   -4.9679 C.2       3 UNK         0.4942 
     26 O          24.7532    1.7322   -5.6851 O.2       3 UNK        -0.5208 
     27 CA         24.0489    1.2773   -3.4443 C.3       3 UNK         0.0250 
     28 CB         22.9173    2.2148   -2.9941 C.3       3 UNK        -0.1990 
     29 N          23.9940    0.0275   -2.6756 N.am      3 UNK        -0.4232 
     30 C          24.8861   -0.9671   -2.7771 C.2       2 UNK         0.4993 
     31 O          25.8355   -0.9578   -3.5668 O.2       2 UNK        -0.5286 
     32 CA         24.6476   -2.2011   -1.8962 C.3       2 UNK         0.0209 
     33 CB         23.5845   -3.1153   -2.5290 C.3       2 UNK        -0.1931 
     34 N          25.9001   -2.9469   -1.7668 N.am      2 UNK        -0.4546 
     35 C          26.7335   -2.8493   -0.7264 C.2       1 UNK         0.5154 
     36 O          26.4503   -2.2688    0.3249 O.2       1 UNK        -0.5181 
     37 C          27.4327   -1.3624   -6.8031 C.2       5 UNK         0.5014 
     38 O          28.1813   -1.4070   -7.7802 O.2       5 UNK        -0.5248 
     39 N          27.4857   -0.4112   -5.8589 N.am      6 UNK        -0.4434 
     40 CA         28.4102    0.7216   -5.8653 C.3       6 UNK         0.0363 
     41 CB         28.2665    1.5146   -4.5578 C.3       6 UNK        -0.1936 
     42 C          28.2328    1.6336   -7.0884 C.2       6 UNK         0.5081 
     43 O          29.2310    2.0410   -7.6758 O.2       6 UNK        -0.5248 
     44 N          26.9818    1.9034   -7.4861 N.am      7 UNK        -0.4718 
     45 CA         26.6500    2.6621   -8.6957 C.3       7 UNK         0.0273 
     46 CB         25.1371    2.9266   -8.7447 C.3       7 UNK        -0.1935 
     47 C          27.1214    1.9776   -9.9911 C.2       7 UNK         0.5018 
     48 O          27.5810    2.6688  -10.9008 O.2       7 UNK        -0.5186 
     49 N          27.0107    0.6430  -10.0495 N.am      8 UNK        -0.4240 
     50 CA         27.4625   -0.1711  -11.1778 C.3       8 UNK         0.0235 
     51 CB         26.8066   -1.5604  -11.1093 C.3       8 UNK        -0.2000 
     52 C          28.9939   -0.2909  -11.2465 C.2       8 UNK         0.4941 
     53 O          29.5672   -0.0851  -12.3170 O.2       8 UNK        -0.5273 
     54 N          29.6263   -0.6397  -10.1179 N.am      9 UNK        -0.4262 
     55 CA         31.0641   -0.9178  -10.0340 C.3       9 UNK         0.0264 
     56 CB         31.3107   -1.8820   -8.8660 C.3       9 UNK        -0.1955 
     57 C          31.9442    0.3342   -9.8739 C.2       9 UNK         0.5031 
     58 O          33.1601    0.2268  -10.0440 O.2       9 UNK        -0.5390 
     59 N          31.3465    1.4760   -9.5067 N.am      10 UNK        -0.4204 
     60 CA         31.9538    2.7723   -9.1734 C.3       10 UNK         0.0237 
     61 CB         32.8237    3.3319  -10.3170 C.3       10 UNK        -0.1985 
     62 C          32.7043    2.7651   -7.8298 C.2       10 UNK         0.4970 
     63 O          32.4570    3.6451   -7.0046 O.2       10 UNK        -0.4914 
     64 N          33.5916    1.7807   -7.6332 N.am      11 UNK        -0.4285 
     65 CA         34.3781    1.5357   -6.4092 C.3       11 UNK         0.1007 
     66 C          35.3578    2.6852   -6.0144 C.2       11 UNK         0.5703 
     67 N          35.7565    3.5541   -6.9363 N.am      11 UNK        -0.7361 
     68 O          35.7958    2.7754   -4.8696 O.2       11 UNK        -0.4986 
     69 C69        33.4958    1.0409   -5.2236 C.3       12 UNK        -0.0947 
     70 S70        32.7233   -0.5688   -5.5847 S.3       12 UNK        -0.2240 
     71 C71        31.6748   -0.8046   -4.1138 C.3       12 UNK         0.0194 
     72 H72        28.2242   -0.1863   -0.9402 H         1 UNK         0.0906 
     73 H73        29.9099    0.0709   -1.3794 H         1 UNK         0.0906 
     74 H74        28.9976   -1.2052   -2.1601 H         1 UNK         0.0906 
     75 H75        29.4232   -3.4694    0.7392 H         1 UNK         0.3140 
     76 H76        28.4075   -3.3598   -1.9401 H         1 UNK         0.1085 
     77 H77        27.1450   -5.4447   -1.2006 H         1 UNK         0.0836 
     78 H78        27.7893   -5.2339    0.3930 H         1 UNK         0.0836 
     79 H79        31.6978   -5.7803   -1.7518 H         1 UNK         0.0731 
     80 H80        31.1271   -4.4796   -0.7532 H         1 UNK         0.0731 
     81 H81        31.7798   -2.6182   -2.0812 H         1 UNK         0.1312 
     82 H82        30.2072   -2.0887   -6.0232 H         1 UNK         0.1406 
     83 H83        29.6008   -5.7969   -3.9709 H         1 UNK         0.1631 
     84 H84        29.6563   -5.4581   -6.6896 H         1 UNK         0.0717 
     85 H85        29.1917   -3.8597   -7.1974 H         1 UNK         0.0717 
     86 H86        25.7486   -3.7083   -4.9763 H         1 UNK         0.0934 
     87 H87        27.2970   -2.9835   -4.7222 H         1 UNK         0.0934 
     88 H88        26.2435   -2.9615   -7.5793 H         1 UNK         0.0739 
     89 H89        24.6746   -1.7837   -5.4786 H         1 UNK         0.3093 
     90 H90        22.9743    0.5970   -7.4436 H         1 UNK         0.0818 
     91 H91        21.7974   -1.5116   -8.0825 H         1 UNK         0.0819 
     92 H92        21.9462   -2.1145   -6.4378 H         1 UNK         0.0819 
     93 H93        20.9607   -0.6908   -6.7763 H         1 UNK         0.0819 
     94 H94        22.5901   -0.3687   -4.7717 H         1 UNK         0.3041 
     95 H95        25.0007    1.7594   -3.2112 H         1 UNK         0.0784 
     96 H96        22.9507    3.1573   -3.5427 H         1 UNK         0.0793 
     97 H97        21.9334    1.7748   -3.1621 H         1 UNK         0.0793 
     98 H98        23.0007    2.4574   -1.9345 H         1 UNK         0.0793 
     99 H99        23.2355   -0.0616   -2.0142 H         1 UNK         0.3024 
    100 H100       24.2947   -1.8712   -0.9160 H         1 UNK         0.1171 
    101 H101       23.4249   -4.0085   -1.9245 H         1 UNK         0.0786 
    102 H102       22.6228   -2.6066   -2.6067 H         1 UNK         0.0786 
    103 H103       23.8632   -3.4393   -3.5317 H         1 UNK         0.0786 
    104 H104       26.2194   -3.4123   -2.6029 H         1 UNK         0.2977 
    105 H105       26.8423   -0.4738   -5.0719 H         1 UNK         0.3127 
    106 H106       29.4220    0.3156   -5.9129 H         1 UNK         0.0770 
    107 H107       27.2713    1.9485   -4.4574 H         1 UNK         0.0814 
    108 H108       28.9867    2.3329   -4.5185 H         1 UNK         0.0814 
    109 H109       28.4435    0.8822   -3.6883 H         1 UNK         0.0814 
    110 H110       26.2037    1.6014   -6.9041 H         1 UNK         0.2983 
    111 H111       27.1618    3.6247   -8.6304 H         1 UNK         0.0947 
    112 H112       24.8709    3.5127   -9.6253 H         1 UNK         0.0806 
    113 H113       24.8037    3.4859   -7.8704 H         1 UNK         0.0806 
    114 H114       24.5675    1.9979   -8.7855 H         1 UNK         0.0806 
    115 H115       26.5850    0.1532   -9.2704 H         1 UNK         0.3000 
    116 H116       27.1270    0.3104  -12.0991 H         1 UNK         0.0850 
    117 H117       27.1217   -2.1836  -11.9472 H         1 UNK         0.0810 
    118 H118       25.7197   -1.4858  -11.1508 H         1 UNK         0.0810 
    119 H119       27.0669   -2.0892  -10.1917 H         1 UNK         0.0810 
    120 H120       29.0744   -0.8200   -9.2793 H         1 UNK         0.3040 
    121 H121       31.3780   -1.4180  -10.9527 H         1 UNK         0.0766 
    122 H122       30.7255   -2.7957   -8.9683 H         1 UNK         0.0812 
    123 H123       31.0462   -1.4131   -7.9205 H         1 UNK         0.0812 
    124 H124       32.3610   -2.1702   -8.8046 H         1 UNK         0.0812 
    125 H125       30.3603    1.4247   -9.2708 H         1 UNK         0.3205 
    126 H126       31.1118    3.4558   -9.0524 H         1 UNK         0.0754 
    127 H127       33.1496    4.3480  -10.0915 H         1 UNK         0.0769 
    128 H128       32.2670    3.3704  -11.2534 H         1 UNK         0.0769 
    129 H129       33.7214    2.7369  -10.4851 H         1 UNK         0.0769 
    130 H130       33.7170    1.1137   -8.3887 H         1 UNK         0.2981 
    131 H131       35.0470    0.7141   -6.6670 H         1 UNK         0.0541 
    132 H132       35.4172    3.4867   -7.8820 H         1 UNK         0.3459 
    133 H133       36.3983    4.2871   -6.6790 H         1 UNK         0.3459 
    134 H134       34.0922    0.9107   -4.3192 H         1 UNK         0.0612 
    135 H135       32.7209    1.7699   -4.9819 H         1 UNK         0.0612 
    136 H136       30.8781   -0.0613   -4.1087 H         1 UNK         0.0624 
    137 H137       32.2775   -0.6193   -3.2233 H         1 UNK         0.0624 
@<TRIPOS>BOND
     1    1    2 1    
     2    1   72 1    
     3    1   73 1    
     4    1   74 1    
     5    2    3 2    
     6    2    4 am   BACKBONE|DICT|INTERRES
     7    4    5 1    
     8    4   75 1    
     9    5    6 1    
    10    5   35 1    
    11    5   76 1    
    12    6    7 1    
    13    6   77 1    
    14    6   78 1    
    15    7    8 1    
    16    8    9 1    
    17    8   79 1    
    18    8   80 1    
    19    9   10 ar   
    20    9   14 ar   
    21   10   11 ar   
    22   10   81 1    
    23   11   12 ar   
    24   11   71 1    
    25   12   13 ar   
    26   12   82 1    
    27   13   14 ar   
    28   13   15 1    
    29   14   83 1    
    30   15   16 1    
    31   15   84 1    
    32   15   85 1    
    33   16   17 1    
    34   17   18 1    
    35   17   86 1    
    36   17   87 1    
    37   18   19 1    
    38   18   37 1    
    39   18   88 1    
    40   19   20 am   BACKBONE|DICT|INTERRES
    41   19   89 1    
    42   20   21 2    
    43   20   22 1    
    44   22   23 1    
    45   22   24 1    
    46   22   90 1    
    47   23   91 1    
    48   23   92 1    
    49   23   93 1    
    50   24   25 am   BACKBONE|DICT|INTERRES
    51   24   94 1    
    52   25   26 2    
    53   25   27 1    
    54   27   28 1    
    55   27   29 1    
    56   27   95 1    
    57   28   96 1    
    58   28   97 1    
    59   28   98 1    
    60   29   30 am   BACKBONE|DICT|INTERRES
    61   29   99 1    
    62   30   31 2    
    63   30   32 1    
    64   32   33 1    
    65   32   34 1    
    66   32  100 1    
    67   33  101 1    
    68   33  102 1    
    69   33  103 1    
    70   34   35 am   BACKBONE|DICT|INTERRES
    71   34  104 1    
    72   35   36 2    
    73   37   38 2    
    74   37   39 am   BACKBONE|DICT|INTERRES
    75   39   40 1    
    76   39  105 1    
    77   40   41 1    
    78   40   42 1    
    79   40  106 1    
    80   41  107 1    
    81   41  108 1    
    82   41  109 1    
    83   42   43 2    
    84   42   44 am   BACKBONE|DICT|INTERRES
    85   44   45 1    
    86   44  110 1    
    87   45   46 1    
    88   45   47 1    
    89   45  111 1    
    90   46  112 1    
    91   46  113 1    
    92   46  114 1    
    93   47   48 2    
    94   47   49 am   BACKBONE|DICT|INTERRES
    95   49   50 1    
    96   49  115 1    
    97   50   51 1    
    98   50   52 1    
    99   50  116 1    
   100   51  117 1    
   101   51  118 1    
   102   51  119 1    
   103   52   53 2    
   104   52   54 am   BACKBONE|DICT|INTERRES
   105   54   55 1    
   106   54  120 1    
   107   55   56 1    
   108   55   57 1    
   109   55  121 1    
   110   56  122 1    
   111   56  123 1    
   112   56  124 1    
   113   57   58 2    
   114   57   59 am   BACKBONE|DICT|INTERRES
   115   59   60 1    
   116   59  125 1    
   117   60   61 1    
   118   60   62 1    
   119   60  126 1    
   120   61  127 1    
   121   61  128 1    
   122   61  129 1    
   123   62   63 2    
   124   62   64 am   BACKBONE|DICT|INTERRES
   125   64   65 1    
   126   64  130 1    
   127   65   66 1    
   128   65   69 1    
   129   65  131 1    
   130   66   67 am   BACKBONE|DICT|INTERRES
   131   66   68 2    
   132   67  132 1    
   133   67  133 1    
   134   69   70 1    
   135   69  134 1    
   136   69  135 1    
   137   70   71 1    
   138   71  136 1    
   139   71  137 1    
@<TRIPOS>SUBSTRUCTURE
     1 UNK         1 GROUP             0       ****    0 ROOT    
