@<TRIPOS>MOLECULE
3R137
137   139    1
SMALL
USER_CHARGES


@<TRIPOS>ATOM
      1 CA         28.0146   -4.3657    2.0803 C.3       0 UNK        -0.2020 
      2 C          27.6883   -2.9823    1.5378 C.2       0 UNK         0.4855 
      3 O          26.8801   -2.2681    2.1312 O.2       0 UNK        -0.5197 
      4 N          28.3167   -2.6000    0.4178 N.am      1 UNK        -0.4892 
      5 CA         28.1302   -1.3108   -0.2627 C.3       1 UNK         0.0835 
      6 C6         29.1907   -1.0603   -1.3672 C.3       12 UNK        -0.0855 
      7 S7         30.9204   -1.1603   -0.7799 S.3       12 UNK        -0.2931 
      8 C8         31.3670   -2.9198   -0.9985 C.3       12 UNK         0.0378 
      9 C9         31.3404   -3.3693   -2.4533 C.ar      12 UNK        -0.0802 
     10 C10        32.4729   -3.2158   -3.2572 C.ar      12 UNK        -0.0944 
     11 C11        32.4665   -3.6392   -4.5934 C.ar      12 UNK        -0.0787 
     12 C12        31.3065   -4.2258   -5.1129 C.ar      12 UNK        -0.0862 
     13 C13        30.1642   -4.3825   -4.3204 C.ar      12 UNK        -0.0733 
     14 C14        30.1959   -3.9677   -2.9873 C.ar      12 UNK        -0.0832 
     15 C15        28.8948   -5.0103   -4.8872 C.3       12 UNK         0.0240 
     16 S16        28.2733   -4.1653   -6.3782 S.3       12 UNK        -0.2522 
     17 C17        28.1815   -2.4281   -5.8337 C.3       12 UNK        -0.0967 
     18 CA         27.4377   -1.5657   -6.8814 C.3       5 UNK         0.0660 
     19 N          25.9908   -1.7965   -6.8608 N.am      5 UNK        -0.4015 
     20 C          25.1357   -1.3801   -7.8046 C.2       4 UNK         0.4946 
     21 O          25.4735   -0.7726   -8.8202 O.2       4 UNK        -0.5353 
     22 CA         23.6440   -1.6509   -7.5481 C.3       4 UNK         0.0277 
     23 CB         23.2958   -3.1190   -7.8428 C.3       4 UNK        -0.1981 
     24 N          23.2365   -1.3072   -6.1830 N.am      4 UNK        -0.4209 
     25 C          23.2494   -0.0621   -5.6853 C.2       3 UNK         0.4942 
     26 O          23.5672    0.9314   -6.3352 O.2       3 UNK        -0.5208 
     27 CA         22.8860    0.1080   -4.2020 C.3       3 UNK         0.0250 
     28 CB         21.3644    0.2478   -4.0349 C.3       3 UNK        -0.1990 
     29 N          23.3812   -0.9586   -3.3259 N.am      3 UNK        -0.4232 
     30 C          24.6616   -1.3363   -3.2028 C.2       2 UNK         0.4993 
     31 O          25.5828   -0.9118   -3.9060 O.2       2 UNK        -0.5286 
     32 CA         24.9443   -2.4143   -2.1435 C.3       2 UNK         0.0209 
     33 CB         24.8588   -3.8106   -2.7827 C.3       2 UNK        -0.1931 
     34 N          26.2548   -2.2708   -1.5049 N.am      2 UNK        -0.4546 
     35 C          26.7107   -1.1881   -0.8541 C.2       1 UNK         0.5154 
     36 O          26.0641   -0.1529   -0.6850 O.2       1 UNK        -0.5181 
     37 C          27.7760   -0.0731   -6.7235 C.2       5 UNK         0.5014 
     38 O          28.6709    0.4129   -7.4177 O.2       5 UNK        -0.5248 
     39 N          27.0409    0.6307   -5.8505 N.am      6 UNK        -0.4434 
     40 CA         27.1438    2.0779   -5.6605 C.3       6 UNK         0.0363 
     41 CB         26.3003    2.5050   -4.4492 C.3       6 UNK        -0.1936 
     42 C          26.7475    2.8695   -6.9196 C.2       6 UNK         0.5081 
     43 O          27.4842    3.7723   -7.3153 O.2       6 UNK        -0.5248 
     44 N          25.6194    2.5018   -7.5458 N.am      7 UNK        -0.4718 
     45 CA         25.1179    3.1043   -8.7859 C.3       7 UNK         0.0273 
     46 CB         23.6924    2.6047   -9.0695 C.3       7 UNK        -0.1935 
     47 C          26.0290    2.8445   -9.9959 C.2       7 UNK         0.5018 
     48 O          26.2366    3.7539  -10.8000 O.2       7 UNK        -0.5186 
     49 N          26.5750    1.6238  -10.0927 N.am      8 UNK        -0.4240 
     50 CA         27.5554    1.2343  -11.1107 C.3       8 UNK         0.0235 
     51 CB         27.6663   -0.2992  -11.1410 C.3       8 UNK        -0.2000 
     52 C          28.9480    1.8566  -10.8976 C.2       8 UNK         0.4941 
     53 O          29.7447    1.8559  -11.8368 O.2       8 UNK        -0.5273 
     54 N          29.2222    2.3412   -9.6757 N.am      9 UNK        -0.4262 
     55 CA         30.5124    2.8224   -9.1703 C.3       9 UNK         0.0264 
     56 CB         30.9441    4.1197   -9.8865 C.3       9 UNK        -0.1955 
     57 C          31.5836    1.7154   -9.2071 C.2       9 UNK         0.5031 
     58 O          32.7090    1.9511   -9.6553 O.2       9 UNK        -0.5390 
     59 N          31.1964    0.5132   -8.7568 N.am      10 UNK        -0.4204 
     60 CA         32.0384   -0.6828   -8.7292 C.3       10 UNK         0.0237 
     61 CB         31.1856   -1.8957   -8.3232 C.3       10 UNK        -0.1985 
     62 C          33.2297   -0.5123   -7.7733 C.2       10 UNK         0.4970 
     63 O          33.0535    0.0432   -6.6872 O.2       10 UNK        -0.4914 
     64 N          34.4003   -0.9971   -8.2115 N.am      11 UNK        -0.4285 
     65 CA         35.7088   -0.9641   -7.5282 C.3       11 UNK         0.1007 
     66 C          36.2075    0.4258   -7.0189 C.2       11 UNK         0.5703 
     67 N          35.6860    1.5387   -7.5226 N.am      11 UNK        -0.7361 
     68 O          37.1166    0.5037   -6.1953 O.2       11 UNK        -0.4986 
     69 C69        35.9193   -2.1436   -6.5304 C.3       12 UNK        -0.0947 
     70 S70        34.8296   -2.1479   -5.0672 S.3       12 UNK        -0.2240 
     71 C71        33.6950   -3.5134   -5.4950 C.3       12 UNK         0.0194 
     72 H72        27.1113   -4.9734    2.1246 H         1 UNK         0.0906 
     73 H73        28.4212   -4.2866    3.0881 H         1 UNK         0.0906 
     74 H74        28.7439   -4.8878    1.4614 H         1 UNK         0.0906 
     75 H75        28.9950   -3.2183    0.0019 H         1 UNK         0.3140 
     76 H76        28.2356   -0.5260    0.4902 H         1 UNK         0.1085 
     77 H77        29.0570   -0.0550   -1.7723 H         1 UNK         0.0836 
     78 H78        29.0451   -1.7239   -2.2179 H         1 UNK         0.0836 
     79 H79        32.3704   -3.0670   -0.5956 H         1 UNK         0.0731 
     80 H80        30.7193   -3.5533   -0.3936 H         1 UNK         0.0731 
     81 H81        33.3602   -2.7701   -2.8301 H         1 UNK         0.1312 
     82 H82        31.2869   -4.5601   -6.1415 H         1 UNK         0.1406 
     83 H83        29.3234   -4.1067   -2.3650 H         1 UNK         0.1631 
     84 H84        28.0982   -5.0196   -4.1416 H         1 UNK         0.0717 
     85 H85        29.0961   -6.0537   -5.1332 H         1 UNK         0.0717 
     86 H86        27.6963   -2.3707   -4.8574 H         1 UNK         0.0934 
     87 H87        29.2026   -2.0732   -5.6833 H         1 UNK         0.0934 
     88 H88        27.7970   -1.8502   -7.8731 H         1 UNK         0.0739 
     89 H89        25.6218   -2.2384   -6.0321 H         1 UNK         0.3093 
     90 H90        23.0734   -1.0217   -8.2349 H         1 UNK         0.0818 
     91 H91        23.5824   -3.3894   -8.8602 H         1 UNK         0.0819 
     92 H92        23.8089   -3.8044   -7.1671 H         1 UNK         0.0819 
     93 H93        22.2241   -3.2978   -7.7526 H         1 UNK         0.0819 
     94 H94        22.9544   -2.0643   -5.5779 H         1 UNK         0.3041 
     95 H95        23.3476    1.0369   -3.8620 H         1 UNK         0.0784 
     96 H96        20.9750    1.0496   -4.6643 H         1 UNK         0.0793 
     97 H97        20.8401   -0.6677   -4.3122 H         1 UNK         0.0793 
     98 H98        21.0978    0.4902   -3.0060 H         1 UNK         0.0793 
     99 H99        22.6941   -1.3873   -2.7221 H         1 UNK         0.3024 
    100 H100       24.1917   -2.3350   -1.3559 H         1 UNK         0.1171 
    101 H101       23.8832   -3.9751   -3.2423 H         1 UNK         0.0786 
    102 H102       25.6121   -3.9448   -3.5606 H         1 UNK         0.0786 
    103 H103       24.9988   -4.5972   -2.0407 H         1 UNK         0.0786 
    104 H104       26.8650   -3.0709   -1.5614 H         1 UNK         0.2977 
    105 H105       26.3685    0.1341   -5.2688 H         1 UNK         0.3127 
    106 H106       28.1892    2.3054   -5.4408 H         1 UNK         0.0770 
    107 H107       25.2380    2.3271   -4.6142 H         1 UNK         0.0814 
    108 H108       26.4239    3.5694   -4.2457 H         1 UNK         0.0814 
    109 H109       26.5937    1.9642   -3.5489 H         1 UNK         0.0814 
    110 H110       25.0347    1.7811   -7.1265 H         1 UNK         0.2983 
    111 H111       25.0753    4.1852   -8.6352 H         1 UNK         0.0947 
    112 H112       23.6609    1.5201   -9.1820 H         1 UNK         0.0806 
    113 H113       23.2985    3.0419   -9.9880 H         1 UNK         0.0806 
    114 H114       23.0107    2.8762   -8.2634 H         1 UNK         0.0806 
    115 H115       26.2899    0.9033   -9.4335 H         1 UNK         0.3000 
    116 H116       27.1913    1.5719  -12.0834 H         1 UNK         0.0850 
    117 H117       28.3659   -0.6278  -11.9109 H         1 UNK         0.0810 
    118 H118       26.7040   -0.7626  -11.3590 H         1 UNK         0.0810 
    119 H119       28.0201   -0.6943  -10.1878 H         1 UNK         0.0810 
    120 H120       28.4948    2.2638   -8.9757 H         1 UNK         0.3040 
    121 H121       30.3556    3.0621   -8.1173 H         1 UNK         0.0766 
    122 H122       31.1688    3.9480  -10.9396 H         1 UNK         0.0812 
    123 H123       31.8413    4.5367   -9.4277 H         1 UNK         0.0812 
    124 H124       30.1659    4.8807   -9.8284 H         1 UNK         0.0812 
    125 H125       30.2693    0.4339   -8.3408 H         1 UNK         0.3205 
    126 H126       32.4102   -0.8435   -9.7434 H         1 UNK         0.0754 
    127 H127       31.7601   -2.8198   -8.3946 H         1 UNK         0.0769 
    128 H128       30.3121   -2.0060   -8.9662 H         1 UNK         0.0769 
    129 H129       30.8372   -1.8086   -7.2944 H         1 UNK         0.0769 
    130 H130       34.4213   -1.4104   -9.1324 H         1 UNK         0.2981 
    131 H131       36.4088   -1.1651   -8.3399 H         1 UNK         0.0541 
    132 H132       34.9315    1.4958   -8.1912 H         1 UNK         0.3459 
    133 H133       36.0257    2.4309   -7.2009 H         1 UNK         0.3459 
    134 H134       36.9505   -2.1544   -6.1738 H         1 UNK         0.0612 
    135 H135       35.7988   -3.0882   -7.0624 H         1 UNK         0.0612 
    136 H136       33.3711   -3.3743   -6.5271 H         1 UNK         0.0624 
    137 H137       34.2486   -4.4526   -5.4644 H         1 UNK         0.0624 
@<TRIPOS>BOND
     1    1    2 1    
     2    1   72 1    
     3    1   73 1    
     4    1   74 1    
     5    2    3 2    
     6    2    4 am   BACKBONE|DICT|INTERRES
     7    4    5 1    
     8    4   75 1    
     9    5    6 1    
    10    5   35 1    
    11    5   76 1    
    12    6    7 1    
    13    6   77 1    
    14    6   78 1    
    15    7    8 1    
    16    8    9 1    
    17    8   79 1    
    18    8   80 1    
    19    9   10 ar   
    20    9   14 ar   
    21   10   11 ar   
    22   10   81 1    
    23   11   12 ar   
    24   11   71 1    
    25   12   13 ar   
    26   12   82 1    
    27   13   14 ar   
    28   13   15 1    
    29   14   83 1    
    30   15   16 1    
    31   15   84 1    
    32   15   85 1    
    33   16   17 1    
    34   17   18 1    
    35   17   86 1    
    36   17   87 1    
    37   18   19 1    
    38   18   37 1    
    39   18   88 1    
    40   19   20 am   BACKBONE|DICT|INTERRES
    41   19   89 1    
    42   20   21 2    
    43   20   22 1    
    44   22   23 1    
    45   22   24 1    
    46   22   90 1    
    47   23   91 1    
    48   23   92 1    
    49   23   93 1    
    50   24   25 am   BACKBONE|DICT|INTERRES
    51   24   94 1    
    52   25   26 2    
    53   25   27 1    
    54   27   28 1    
    55   27   29 1    
    56   27   95 1    
    57   28   96 1    
    58   28   97 1    
    59   28   98 1    
    60   29   30 am   BACKBONE|DICT|INTERRES
    61   29   99 1    
    62   30   31 2    
    63   30   32 1    
    64   32   33 1    
    65   32   34 1    
    66   32  100 1    
    67   33  101 1    
    68   33  102 1    
    69   33  103 1    
    70   34   35 am   BACKBONE|DICT|INTERRES
    71   34  104 1    
    72   35   36 2    
    73   37   38 2    
    74   37   39 am   BACKBONE|DICT|INTERRES
    75   39   40 1    
    76   39  105 1    
    77   40   41 1    
    78   40   42 1    
    79   40  106 1    
    80   41  107 1    
    81   41  108 1    
    82   41  109 1    
    83   42   43 2    
    84   42   44 am   BACKBONE|DICT|INTERRES
    85   44   45 1    
    86   44  110 1    
    87   45   46 1    
    88   45   47 1    
    89   45  111 1    
    90   46  112 1    
    91   46  113 1    
    92   46  114 1    
    93   47   48 2    
    94   47   49 am   BACKBONE|DICT|INTERRES
    95   49   50 1    
    96   49  115 1    
    97   50   51 1    
    98   50   52 1    
    99   50  116 1    
   100   51  117 1    
   101   51  118 1    
   102   51  119 1    
   103   52   53 2    
   104   52   54 am   BACKBONE|DICT|INTERRES
   105   54   55 1    
   106   54  120 1    
   107   55   56 1    
   108   55   57 1    
   109   55  121 1    
   110   56  122 1    
   111   56  123 1    
   112   56  124 1    
   113   57   58 2    
   114   57   59 am   BACKBONE|DICT|INTERRES
   115   59   60 1    
   116   59  125 1    
   117   60   61 1    
   118   60   62 1    
   119   60  126 1    
   120   61  127 1    
   121   61  128 1    
   122   61  129 1    
   123   62   63 2    
   124   62   64 am   BACKBONE|DICT|INTERRES
   125   64   65 1    
   126   64  130 1    
   127   65   66 1    
   128   65   69 1    
   129   65  131 1    
   130   66   67 am   BACKBONE|DICT|INTERRES
   131   66   68 2    
   132   67  132 1    
   133   67  133 1    
   134   69   70 1    
   135   69  134 1    
   136   69  135 1    
   137   70   71 1    
   138   71  136 1    
   139   71  137 1    
@<TRIPOS>SUBSTRUCTURE
     1 UNK         1 GROUP             0       ****    0 ROOT    
