@<TRIPOS>MOLECULE
3R137
137   139    1
SMALL
USER_CHARGES


@<TRIPOS>ATOM
      1 CA         29.6511    0.7849   -1.3052 C.3       0 UNK        -0.2020 
      2 C          29.0489   -0.5698   -1.6448 C.2       0 UNK         0.4855 
      3 O          28.2566   -0.6692   -2.5815 O.2       0 UNK        -0.5197 
      4 N          29.4049   -1.6167   -0.8882 N.am      1 UNK        -0.4892 
      5 CA         28.8911   -2.9768   -1.0718 C.3       1 UNK         0.0835 
      6 C6         29.6842   -4.0094   -0.2315 C.3       12 UNK        -0.0855 
      7 S7         29.4065   -5.7260   -0.7921 S.3       12 UNK        -0.2931 
      8 C8         30.8260   -5.9972   -1.9047 C.3       12 UNK         0.0378 
      9 C9         30.8333   -5.0097   -3.0629 C.ar      12 UNK        -0.0802 
     10 C10        31.8271   -4.0284   -3.1476 C.ar      12 UNK        -0.0944 
     11 C11        31.8183   -3.0959   -4.1896 C.ar      12 UNK        -0.0787 
     12 C12        30.7960   -3.1438   -5.1404 C.ar      12 UNK        -0.0862 
     13 C13        29.7976   -4.1184   -5.0672 C.ar      12 UNK        -0.0733 
     14 C14        29.8291   -5.0602   -4.0355 C.ar      12 UNK        -0.0832 
     15 C15        28.6931   -4.1552   -6.1095 C.3       12 UNK         0.0240 
     16 S16        27.1680   -3.3762   -5.4956 S.3       12 UNK        -0.2522 
     17 C17        26.2229   -3.2487   -7.0589 C.3       12 UNK        -0.0967 
     18 CA         25.7547   -1.8145   -7.4149 C.3       5 UNK         0.0660 
     19 N          24.7328   -1.3412   -6.4789 N.am      5 UNK        -0.4015 
     20 C          23.7982   -0.4240   -6.7645 C.2       4 UNK         0.4946 
     21 O          23.6895    0.1263   -7.8607 O.2       4 UNK        -0.5353 
     22 CA         22.8321   -0.0446   -5.6276 C.3       4 UNK         0.0277 
     23 CB         21.6051   -0.9702   -5.6300 C.3       4 UNK        -0.1981 
     24 N          23.4632   -0.0775   -4.3052 N.am      4 UNK        -0.4209 
     25 C          24.4467    0.7382   -3.9069 C.2       3 UNK         0.4942 
     26 O          24.8989    1.6427   -4.6068 O.2       3 UNK        -0.5208 
     27 CA         25.0690    0.4803   -2.5261 C.3       3 UNK         0.0250 
     28 CB         24.2334    1.1168   -1.3986 C.3       3 UNK        -0.1990 
     29 N          25.3722   -0.9341   -2.2621 N.am      3 UNK        -0.4232 
     30 C          24.5277   -1.9569   -2.0481 C.2       2 UNK         0.4993 
     31 O          23.3021   -1.8385   -2.0817 O.2       2 UNK        -0.5286 
     32 CA         25.1272   -3.3558   -1.7994 C.3       2 UNK         0.0209 
     33 CB         24.5952   -4.3709   -2.8266 C.3       2 UNK        -0.1931 
     34 N          26.5923   -3.3725   -1.8279 N.am      2 UNK        -0.4546 
     35 C          27.3745   -3.0276   -0.7963 C.2       1 UNK         0.5154 
     36 O          26.9460   -2.7181    0.3182 O.2       1 UNK        -0.5181 
     37 C          26.9396   -0.8344   -7.5636 C.2       5 UNK         0.5014 
     38 O          27.6838   -0.9436   -8.5407 O.2       5 UNK        -0.5248 
     39 N          27.1104    0.0921   -6.6050 N.am      6 UNK        -0.4434 
     40 CA         28.2584    0.9974   -6.5036 C.3       6 UNK         0.0363 
     41 CB         28.1512    1.8508   -5.2310 C.3       6 UNK        -0.1936 
     42 C          28.4461    1.9066   -7.7227 C.2       6 UNK         0.5081 
     43 O          29.5869    2.1571   -8.1052 O.2       6 UNK        -0.5248 
     44 N          27.3357    2.3512   -8.3255 N.am      7 UNK        -0.4718 
     45 CA         27.3234    3.1837   -9.5306 C.3       7 UNK         0.0273 
     46 CB         25.9021    3.7225   -9.7578 C.3       7 UNK        -0.1935 
     47 C          27.8290    2.4515  -10.7864 C.2       7 UNK         0.5018 
     48 O          28.3931    3.0978  -11.6699 O.2       7 UNK        -0.5186 
     49 N          27.6249    1.1282  -10.8433 N.am      8 UNK        -0.4240 
     50 CA         28.1035    0.2672  -11.9248 C.3       8 UNK         0.0235 
     51 CB         27.1665   -0.9434  -12.0731 C.3       8 UNK        -0.2000 
     52 C          29.5475   -0.1887  -11.6735 C.2       8 UNK         0.4941 
     53 O          30.3595   -0.1719  -12.5988 O.2       8 UNK        -0.5273 
     54 N          29.8392   -0.5870  -10.4279 N.am      9 UNK        -0.4262 
     55 CA         31.1436   -1.0960   -9.9991 C.3       9 UNK         0.0264 
     56 CB         30.9516   -1.8743   -8.6894 C.3       9 UNK        -0.1955 
     57 C          32.2218   -0.0128   -9.8155 C.2       9 UNK         0.5031 
     58 O          33.4036   -0.3587   -9.7883 O.2       9 UNK        -0.5390 
     59 N          31.8039    1.2520   -9.6531 N.am      10 UNK        -0.4204 
     60 CA         32.6082    2.4125   -9.2463 C.3       10 UNK         0.0237 
     61 CB         33.6921    2.7531  -10.2921 C.3       10 UNK        -0.1985 
     62 C          33.1593    2.2445   -7.8153 C.2       10 UNK         0.4970 
     63 O          34.3273    2.5444   -7.5594 O.2       10 UNK        -0.4914 
     64 N          32.3023    1.7430   -6.9163 N.am      11 UNK        -0.4285 
     65 CA         32.6077    1.5163   -5.4976 C.3       11 UNK         0.1007 
     66 C          32.5614    2.8355   -4.6789 C.2       11 UNK         0.5703 
     67 N          33.3690    2.9481   -3.6331 N.am      11 UNK        -0.7361 
     68 O          31.7798    3.7416   -4.9632 O.2       11 UNK        -0.4986 
     69 C69        31.6846    0.4207   -4.8975 C.3       12 UNK        -0.0947 
     70 S70        32.4692   -0.4787   -3.5163 S.3       12 UNK        -0.2240 
     71 C71        32.9272   -2.0574   -4.2980 C.3       12 UNK         0.0194 
     72 H72        30.0857    1.2371   -2.1966 H         1 UNK         0.0906 
     73 H73        28.8778    1.4536   -0.9272 H         1 UNK         0.0906 
     74 H74        30.4353    0.7047   -0.5520 H         1 UNK         0.0906 
     75 H75        30.0325   -1.4800   -0.1089 H         1 UNK         0.3140 
     76 H76        29.0466   -3.2062   -2.1266 H         1 UNK         0.1085 
     77 H77        30.7535   -3.7990   -0.2877 H         1 UNK         0.0836 
     78 H78        29.4242   -3.9355    0.8263 H         1 UNK         0.0836 
     79 H79        31.7509   -5.9333   -1.3291 H         1 UNK         0.0731 
     80 H80        30.7798   -7.0135   -2.2987 H         1 UNK         0.0731 
     81 H81        32.6079   -3.9866   -2.4005 H         1 UNK         0.1312 
     82 H82        30.7769   -2.4244   -5.9429 H         1 UNK         0.1406 
     83 H83        29.0560   -5.8143   -3.9714 H         1 UNK         0.1631 
     84 H84        28.4834   -5.1870   -6.3956 H         1 UNK         0.0717 
     85 H85        29.0204   -3.6433   -7.0150 H         1 UNK         0.0717 
     86 H86        26.8149   -3.6506   -7.8835 H         1 UNK         0.0934 
     87 H87        25.3585   -3.9106   -6.9848 H         1 UNK         0.0934 
     88 H88        25.2905   -1.8719   -8.4022 H         1 UNK         0.0739 
     89 H89        24.7525   -1.7457   -5.5546 H         1 UNK         0.3093 
     90 H90        22.4928    0.9770   -5.8115 H         1 UNK         0.0818 
     91 H91        20.8738   -0.6601   -4.8833 H         1 UNK         0.0819 
     92 H92        21.1044   -0.9522   -6.5991 H         1 UNK         0.0819 
     93 H93        21.8777   -2.0057   -5.4218 H         1 UNK         0.0819 
     94 H94        23.1493   -0.7842   -3.6434 H         1 UNK         0.3041 
     95 H95        26.0373    0.9838   -2.5285 H         1 UNK         0.0784 
     96 H96        24.1220    2.1900   -1.5587 H         1 UNK         0.0793 
     97 H97        23.2299    0.6947   -1.3399 H         1 UNK         0.0793 
     98 H98        24.7115    0.9818   -0.4284 H         1 UNK         0.0793 
     99 H99        26.3675   -1.1427   -2.2807 H         1 UNK         0.3024 
    100 H100       24.7907   -3.6711   -0.8089 H         1 UNK         0.1171 
    101 H101       23.5106   -4.4652   -2.7569 H         1 UNK         0.0786 
    102 H102       25.0141   -5.3633   -2.6592 H         1 UNK         0.0786 
    103 H103       24.8276   -4.0759   -3.8494 H         1 UNK         0.0786 
    104 H104       27.0217   -3.5808   -2.7197 H         1 UNK         0.2977 
    105 H105       26.4328    0.1444   -5.8581 H         1 UNK         0.3127 
    106 H106       29.1467    0.3698   -6.4228 H         1 UNK         0.0770 
    107 H107       27.2883    2.5163   -5.2627 H         1 UNK         0.0814 
    108 H108       29.0341    2.4794   -5.1063 H         1 UNK         0.0814 
    109 H109       28.0652    1.2321   -4.3394 H         1 UNK         0.0814 
    110 H110       26.4409    2.0869   -7.9375 H         1 UNK         0.2983 
    111 H111       27.9896    4.0323   -9.3593 H         1 UNK         0.0947 
    112 H112       25.8635    4.3625  -10.6405 H         1 UNK         0.0806 
    113 H113       25.5641    4.3207   -8.9114 H         1 UNK         0.0806 
    114 H114       25.1831    2.9160   -9.9080 H         1 UNK         0.0806 
    115 H115       27.2008    0.6694  -10.0474 H         1 UNK         0.3000 
    116 H116       28.0847    0.8234  -12.8650 H         1 UNK         0.0850 
    117 H117       27.4963   -1.5929  -12.8851 H         1 UNK         0.0810 
    118 H118       26.1485   -0.6290  -12.3038 H         1 UNK         0.0810 
    119 H119       27.1322   -1.5482  -11.1661 H         1 UNK         0.0810 
    120 H120       29.0899   -0.6179   -9.7390 H         1 UNK         0.3040 
    121 H121       31.5086   -1.7908  -10.7585 H         1 UNK         0.0766 
    122 H122       31.8997   -2.2642   -8.3160 H         1 UNK         0.0812 
    123 H123       30.2853   -2.7244   -8.8339 H         1 UNK         0.0812 
    124 H124       30.5243   -1.2396   -7.9129 H         1 UNK         0.0812 
    125 H125       30.8023    1.4069   -9.6147 H         1 UNK         0.3205 
    126 H126       31.9195    3.2578   -9.2061 H         1 UNK         0.0754 
    127 H127       34.1840    3.6954  -10.0481 H         1 UNK         0.0769 
    128 H128       33.2615    2.8604  -11.2876 H         1 UNK         0.0769 
    129 H129       34.4676    1.9884  -10.3422 H         1 UNK         0.0769 
    130 H130       31.3340    1.6433   -7.1980 H         1 UNK         0.2981 
    131 H131       33.6337    1.1433   -5.4615 H         1 UNK         0.0541 
    132 H132       33.3453    3.7921   -3.0830 H         1 UNK         0.3459 
    133 H133       33.9891    2.1964   -3.3739 H         1 UNK         0.3459 
    134 H134       31.4166   -0.3014   -5.6667 H         1 UNK         0.0612 
    135 H135       30.7410    0.8391   -4.5476 H         1 UNK         0.0612 
    136 H136       33.1969   -1.8945   -5.3427 H         1 UNK         0.0624 
    137 H137       33.8294   -2.4312   -3.8117 H         1 UNK         0.0624 
@<TRIPOS>BOND
     1    1    2 1    
     2    1   72 1    
     3    1   73 1    
     4    1   74 1    
     5    2    3 2    
     6    2    4 am   BACKBONE|DICT|INTERRES
     7    4    5 1    
     8    4   75 1    
     9    5    6 1    
    10    5   35 1    
    11    5   76 1    
    12    6    7 1    
    13    6   77 1    
    14    6   78 1    
    15    7    8 1    
    16    8    9 1    
    17    8   79 1    
    18    8   80 1    
    19    9   10 ar   
    20    9   14 ar   
    21   10   11 ar   
    22   10   81 1    
    23   11   12 ar   
    24   11   71 1    
    25   12   13 ar   
    26   12   82 1    
    27   13   14 ar   
    28   13   15 1    
    29   14   83 1    
    30   15   16 1    
    31   15   84 1    
    32   15   85 1    
    33   16   17 1    
    34   17   18 1    
    35   17   86 1    
    36   17   87 1    
    37   18   19 1    
    38   18   37 1    
    39   18   88 1    
    40   19   20 am   BACKBONE|DICT|INTERRES
    41   19   89 1    
    42   20   21 2    
    43   20   22 1    
    44   22   23 1    
    45   22   24 1    
    46   22   90 1    
    47   23   91 1    
    48   23   92 1    
    49   23   93 1    
    50   24   25 am   BACKBONE|DICT|INTERRES
    51   24   94 1    
    52   25   26 2    
    53   25   27 1    
    54   27   28 1    
    55   27   29 1    
    56   27   95 1    
    57   28   96 1    
    58   28   97 1    
    59   28   98 1    
    60   29   30 am   BACKBONE|DICT|INTERRES
    61   29   99 1    
    62   30   31 2    
    63   30   32 1    
    64   32   33 1    
    65   32   34 1    
    66   32  100 1    
    67   33  101 1    
    68   33  102 1    
    69   33  103 1    
    70   34   35 am   BACKBONE|DICT|INTERRES
    71   34  104 1    
    72   35   36 2    
    73   37   38 2    
    74   37   39 am   BACKBONE|DICT|INTERRES
    75   39   40 1    
    76   39  105 1    
    77   40   41 1    
    78   40   42 1    
    79   40  106 1    
    80   41  107 1    
    81   41  108 1    
    82   41  109 1    
    83   42   43 2    
    84   42   44 am   BACKBONE|DICT|INTERRES
    85   44   45 1    
    86   44  110 1    
    87   45   46 1    
    88   45   47 1    
    89   45  111 1    
    90   46  112 1    
    91   46  113 1    
    92   46  114 1    
    93   47   48 2    
    94   47   49 am   BACKBONE|DICT|INTERRES
    95   49   50 1    
    96   49  115 1    
    97   50   51 1    
    98   50   52 1    
    99   50  116 1    
   100   51  117 1    
   101   51  118 1    
   102   51  119 1    
   103   52   53 2    
   104   52   54 am   BACKBONE|DICT|INTERRES
   105   54   55 1    
   106   54  120 1    
   107   55   56 1    
   108   55   57 1    
   109   55  121 1    
   110   56  122 1    
   111   56  123 1    
   112   56  124 1    
   113   57   58 2    
   114   57   59 am   BACKBONE|DICT|INTERRES
   115   59   60 1    
   116   59  125 1    
   117   60   61 1    
   118   60   62 1    
   119   60  126 1    
   120   61  127 1    
   121   61  128 1    
   122   61  129 1    
   123   62   63 2    
   124   62   64 am   BACKBONE|DICT|INTERRES
   125   64   65 1    
   126   64  130 1    
   127   65   66 1    
   128   65   69 1    
   129   65  131 1    
   130   66   67 am   BACKBONE|DICT|INTERRES
   131   66   68 2    
   132   67  132 1    
   133   67  133 1    
   134   69   70 1    
   135   69  134 1    
   136   69  135 1    
   137   70   71 1    
   138   71  136 1    
   139   71  137 1    
@<TRIPOS>SUBSTRUCTURE
     1 UNK         1 GROUP             0       ****    0 ROOT    
