@<TRIPOS>MOLECULE
3R137
137   139    1
SMALL
USER_CHARGES


@<TRIPOS>ATOM
      1 CA         30.2602   -7.6808   -7.2000 C.3       0 UNK        -0.2020 
      2 C          29.7107   -6.2846   -6.9532 C.2       0 UNK         0.4855 
      3 O          29.9697   -5.3812   -7.7465 O.2       0 UNK        -0.5197 
      4 N          28.9595   -6.1021   -5.8582 N.am      1 UNK        -0.4892 
      5 CA         28.3437   -4.8358   -5.4313 C.3       1 UNK         0.0835 
      6 C6         29.3743   -3.7436   -5.0287 C.3       12 UNK        -0.0855 
      7 S7         30.5433   -4.3123   -3.7495 S.3       12 UNK        -0.2931 
      8 C8         29.9214   -3.4427   -2.2688 C.3       12 UNK         0.0378 
      9 C9         30.3824   -1.9927   -2.0897 C.ar      12 UNK        -0.0802 
     10 C10        31.4547   -1.4327   -2.8014 C.ar      12 UNK        -0.0944 
     11 C11        31.8893   -0.1304   -2.5295 C.ar      12 UNK        -0.0787 
     12 C12        31.2365    0.6241   -1.5514 C.ar      12 UNK        -0.0862 
     13 C13        30.1680    0.0824   -0.8342 C.ar      12 UNK        -0.0733 
     14 C14        29.7459   -1.2209   -1.1114 C.ar      12 UNK        -0.0832 
     15 C15        29.5125    0.8778    0.2859 C.3       12 UNK         0.0240 
     16 S16        27.8158    1.3872   -0.1238 S.3       12 UNK        -0.2522 
     17 C17        28.0929    2.6540   -1.4107 C.3       12 UNK        -0.0967 
     18 CA         27.5978    2.2100   -2.8106 C.3       5 UNK         0.0660 
     19 N          26.2218    1.6872   -2.7524 N.am      5 UNK        -0.4015 
     20 C          25.3958    1.3928   -3.7644 C.2       4 UNK         0.4946 
     21 O          25.5776    1.7295   -4.9343 O.2       4 UNK        -0.5353 
     22 CA         24.1218    0.6128   -3.3975 C.3       4 UNK         0.0277 
     23 CB         23.0056    1.5819   -2.9750 C.3       4 UNK        -0.1981 
     24 N          23.6487   -0.2022   -4.5207 N.am      4 UNK        -0.4209 
     25 C          24.3279   -1.2221   -5.0636 C.2       3 UNK         0.4942 
     26 O          25.3718   -1.6837   -4.5918 O.2       3 UNK        -0.5208 
     27 CA         23.7396   -1.8160   -6.3517 C.3       3 UNK         0.0250 
     28 CB         23.6426   -0.7640   -7.4743 C.3       3 UNK        -0.1990 
     29 N          24.5898   -2.9155   -6.7939 N.am      3 UNK        -0.4232 
     30 C          24.2126   -3.9875   -7.4932 C.2       2 UNK         0.4993 
     31 O          23.0568   -4.1750   -7.8760 O.2       2 UNK        -0.5286 
     32 CA         25.2858   -5.0458   -7.8204 C.3       2 UNK         0.0209 
     33 CB         25.8686   -4.8087   -9.2279 C.3       2 UNK        -0.1931 
     34 N          26.3580   -5.2006   -6.8198 N.am      2 UNK        -0.4546 
     35 C          27.3288   -4.3370   -6.4835 C.2       1 UNK         0.5154 
     36 O          27.4482   -3.2174   -6.9832 O.2       1 UNK        -0.5181 
     37 C          27.8515    3.3389   -3.8345 C.2       5 UNK         0.5014 
     38 O          28.9055    3.3502   -4.4699 O.2       5 UNK        -0.5248 
     39 N          26.8868    4.2568   -3.9882 N.am      6 UNK        -0.4434 
     40 CA         26.9405    5.3787   -4.9306 C.3       6 UNK         0.0363 
     41 CB         25.8136    6.3680   -4.5906 C.3       6 UNK        -0.1936 
     42 C          26.8617    4.9715   -6.4165 C.2       6 UNK         0.5081 
     43 O          27.2882    5.7531   -7.2674 O.2       6 UNK        -0.5248 
     44 N          26.3125    3.7862   -6.7099 N.am      7 UNK        -0.4718 
     45 CA         26.1137    3.2505   -8.0601 C.3       7 UNK         0.0273 
     46 CB         24.6068    3.2797   -8.3774 C.3       7 UNK        -0.1935 
     47 C          26.6890    1.8293   -8.2097 C.2       7 UNK         0.5018 
     48 O          26.3873    1.1633   -9.2016 O.2       7 UNK        -0.5186 
     49 N          27.4745    1.3776   -7.2224 N.am      8 UNK        -0.4240 
     50 CA         28.0400    0.0320   -7.1259 C.3       8 UNK         0.0235 
     51 CB         28.7244   -0.1238   -5.7586 C.3       8 UNK        -0.2000 
     52 C          29.0028   -0.3039   -8.2782 C.2       8 UNK         0.4941 
     53 O          29.7590    0.5671   -8.7150 O.2       8 UNK        -0.5273 
     54 N          28.9532   -1.5606   -8.7413 N.am      9 UNK        -0.4262 
     55 CA         29.7372   -2.0606   -9.8729 C.3       9 UNK         0.0264 
     56 CB         29.1171   -3.3523  -10.4296 C.3       9 UNK        -0.1955 
     57 C          31.2221   -2.2240   -9.5193 C.2       9 UNK         0.5031 
     58 O          32.0612   -1.5604  -10.1309 O.2       9 UNK        -0.5390 
     59 N          31.5328   -3.0499   -8.5097 N.am      10 UNK        -0.4204 
     60 CA         32.8763   -3.1868   -7.9314 C.3       10 UNK         0.0237 
     61 CB         33.0036   -4.5582   -7.2425 C.3       10 UNK        -0.1985 
     62 C          33.2086   -2.0172   -6.9813 C.2       10 UNK         0.4970 
     63 O          33.5137   -2.2395   -5.8088 O.2       10 UNK        -0.4914 
     64 N          33.1294   -0.7905   -7.5027 N.am      11 UNK        -0.4285 
     65 CA         33.3636    0.4696   -6.7948 C.3       11 UNK         0.1007 
     66 C          33.7487    1.6023   -7.7878 C.2       11 UNK         0.5703 
     67 N          33.9304    2.8233   -7.3051 N.am      11 UNK        -0.7361 
     68 O          33.9086    1.3870   -8.9886 O.2       11 UNK        -0.4986 
     69 C69        32.1763    0.8271   -5.8533 C.3       12 UNK        -0.0947 
     70 S70        32.6944    1.7801   -4.3906 S.3       12 UNK        -0.2240 
     71 C71        33.1133    0.4429   -3.2303 C.3       12 UNK         0.0194 
     72 H72        29.9078   -8.0567   -8.1600 H         1 UNK         0.0906 
     73 H73        31.3493   -7.6533   -7.2235 H         1 UNK         0.0906 
     74 H74        29.9546   -8.3840   -6.4256 H         1 UNK         0.0906 
     75 H75        28.7968   -6.8871   -5.2428 H         1 UNK         0.3140 
     76 H76        27.7570   -5.0636   -4.5397 H         1 UNK         0.1085 
     77 H77        29.9526   -3.4132   -5.8929 H         1 UNK         0.0836 
     78 H78        28.8502   -2.8629   -4.6553 H         1 UNK         0.0836 
     79 H79        30.2500   -4.0056   -1.3942 H         1 UNK         0.0731 
     80 H80        28.8310   -3.4874   -2.2659 H         1 UNK         0.0731 
     81 H81        31.9823   -2.0138   -3.5446 H         1 UNK         0.1312 
     82 H82        31.5835    1.6246   -1.3315 H         1 UNK         0.1406 
     83 H83        28.9308   -1.6442   -0.5395 H         1 UNK         0.1631 
     84 H84        30.1035    1.7587    0.5419 H         1 UNK         0.0717 
     85 H85        29.4833    0.2628    1.1865 H         1 UNK         0.0717 
     86 H86        27.5759    3.5617   -1.0924 H         1 UNK         0.0934 
     87 H87        29.1537    2.9110   -1.4462 H         1 UNK         0.0934 
     88 H88        28.2180    1.3676   -3.1231 H         1 UNK         0.0739 
     89 H89        25.9462    1.3907   -1.8267 H         1 UNK         0.3093 
     90 H90        24.3475   -0.0583   -2.5658 H         1 UNK         0.0818 
     91 H91        23.3090    2.1810   -2.1154 H         1 UNK         0.0819 
     92 H92        22.7468    2.2734   -3.7783 H         1 UNK         0.0819 
     93 H93        22.1006    1.0455   -2.6888 H         1 UNK         0.0819 
     94 H94        22.8150    0.1229   -4.9869 H         1 UNK         0.3041 
     95 H95        22.7440   -2.1992   -6.1183 H         1 UNK         0.0784 
     96 H96        23.2534   -1.1995   -8.3948 H         1 UNK         0.0793 
     97 H97        24.6184   -0.3330   -7.6981 H         1 UNK         0.0793 
     98 H98        22.9775    0.0562   -7.2034 H         1 UNK         0.0793 
     99 H99        25.5623   -2.8432   -6.5073 H         1 UNK         0.3024 
    100 H100       24.7662   -6.0054   -7.8414 H         1 UNK         0.1171 
    101 H101       25.0855   -4.8590   -9.9855 H         1 UNK         0.0786 
    102 H102       26.3338   -3.8267   -9.3130 H         1 UNK         0.0786 
    103 H103       26.6167   -5.5596   -9.4823 H         1 UNK         0.0786 
    104 H104       26.3582   -6.0912   -6.3414 H         1 UNK         0.2977 
    105 H105       26.0395    4.1555   -3.4486 H         1 UNK         0.3127 
    106 H106       27.8957    5.8888   -4.7877 H         1 UNK         0.0770 
    107 H107       25.8437    7.2359   -5.2510 H         1 UNK         0.0814 
    108 H108       25.9032    6.7384   -3.5692 H         1 UNK         0.0814 
    109 H109       24.8293    5.9107   -4.6995 H         1 UNK         0.0814 
    110 H110       26.0027    3.1771   -5.9517 H         1 UNK         0.2983 
    111 H111       26.6342    3.8676   -8.7953 H         1 UNK         0.0947 
    112 H112       24.4088    2.9333   -9.3926 H         1 UNK         0.0806 
    113 H113       24.2048    4.2898   -8.2982 H         1 UNK         0.0806 
    114 H114       24.0440    2.6395   -7.6966 H         1 UNK         0.0806 
    115 H115       27.6653    2.0025   -6.4527 H         1 UNK         0.3000 
    116 H116       27.2017   -0.6654   -7.1710 H         1 UNK         0.0850 
    117 H117       29.3038    0.7589   -5.4898 H         1 UNK         0.0810 
    118 H118       29.4094   -0.9701   -5.7508 H         1 UNK         0.0810 
    119 H119       27.9877   -0.2915   -4.9725 H         1 UNK         0.0810 
    120 H120       28.3481   -2.2256   -8.2615 H         1 UNK         0.3040 
    121 H121       29.6831   -1.3133  -10.6678 H         1 UNK         0.0766 
    122 H122       28.1569   -3.1496  -10.9037 H         1 UNK         0.0812 
    123 H123       28.9484   -4.0960   -9.6532 H         1 UNK         0.0812 
    124 H124       29.7600   -3.8049  -11.1857 H         1 UNK         0.0812 
    125 H125       30.8049   -3.6353   -8.1068 H         1 UNK         0.3205 
    126 H126       33.6100   -3.1607   -8.7397 H         1 UNK         0.0754 
    127 H127       32.3157   -4.6510   -6.4011 H         1 UNK         0.0769 
    128 H128       34.0123   -4.7107   -6.8567 H         1 UNK         0.0769 
    129 H129       32.7971   -5.3720   -7.9376 H         1 UNK         0.0769 
    130 H130       32.8992   -0.6919   -8.4881 H         1 UNK         0.2981 
    131 H131       34.2582    0.3081   -6.1907 H         1 UNK         0.0541 
    132 H132       33.7879    3.0076   -6.3231 H         1 UNK         0.3459 
    133 H133       34.1888    3.5703   -7.9302 H         1 UNK         0.3459 
    134 H134       31.4110    1.3892   -6.3913 H         1 UNK         0.0612 
    135 H135       31.6799   -0.0744   -5.4937 H         1 UNK         0.0612 
    136 H136       33.6657   -0.3377   -3.7555 H         1 UNK         0.0624 
    137 H137       33.7958    0.8405   -2.4779 H         1 UNK         0.0624 
@<TRIPOS>BOND
     1    1    2 1    
     2    1   72 1    
     3    1   73 1    
     4    1   74 1    
     5    2    3 2    
     6    2    4 am   BACKBONE|DICT|INTERRES
     7    4    5 1    
     8    4   75 1    
     9    5    6 1    
    10    5   35 1    
    11    5   76 1    
    12    6    7 1    
    13    6   77 1    
    14    6   78 1    
    15    7    8 1    
    16    8    9 1    
    17    8   79 1    
    18    8   80 1    
    19    9   10 ar   
    20    9   14 ar   
    21   10   11 ar   
    22   10   81 1    
    23   11   12 ar   
    24   11   71 1    
    25   12   13 ar   
    26   12   82 1    
    27   13   14 ar   
    28   13   15 1    
    29   14   83 1    
    30   15   16 1    
    31   15   84 1    
    32   15   85 1    
    33   16   17 1    
    34   17   18 1    
    35   17   86 1    
    36   17   87 1    
    37   18   19 1    
    38   18   37 1    
    39   18   88 1    
    40   19   20 am   BACKBONE|DICT|INTERRES
    41   19   89 1    
    42   20   21 2    
    43   20   22 1    
    44   22   23 1    
    45   22   24 1    
    46   22   90 1    
    47   23   91 1    
    48   23   92 1    
    49   23   93 1    
    50   24   25 am   BACKBONE|DICT|INTERRES
    51   24   94 1    
    52   25   26 2    
    53   25   27 1    
    54   27   28 1    
    55   27   29 1    
    56   27   95 1    
    57   28   96 1    
    58   28   97 1    
    59   28   98 1    
    60   29   30 am   BACKBONE|DICT|INTERRES
    61   29   99 1    
    62   30   31 2    
    63   30   32 1    
    64   32   33 1    
    65   32   34 1    
    66   32  100 1    
    67   33  101 1    
    68   33  102 1    
    69   33  103 1    
    70   34   35 am   BACKBONE|DICT|INTERRES
    71   34  104 1    
    72   35   36 2    
    73   37   38 2    
    74   37   39 am   BACKBONE|DICT|INTERRES
    75   39   40 1    
    76   39  105 1    
    77   40   41 1    
    78   40   42 1    
    79   40  106 1    
    80   41  107 1    
    81   41  108 1    
    82   41  109 1    
    83   42   43 2    
    84   42   44 am   BACKBONE|DICT|INTERRES
    85   44   45 1    
    86   44  110 1    
    87   45   46 1    
    88   45   47 1    
    89   45  111 1    
    90   46  112 1    
    91   46  113 1    
    92   46  114 1    
    93   47   48 2    
    94   47   49 am   BACKBONE|DICT|INTERRES
    95   49   50 1    
    96   49  115 1    
    97   50   51 1    
    98   50   52 1    
    99   50  116 1    
   100   51  117 1    
   101   51  118 1    
   102   51  119 1    
   103   52   53 2    
   104   52   54 am   BACKBONE|DICT|INTERRES
   105   54   55 1    
   106   54  120 1    
   107   55   56 1    
   108   55   57 1    
   109   55  121 1    
   110   56  122 1    
   111   56  123 1    
   112   56  124 1    
   113   57   58 2    
   114   57   59 am   BACKBONE|DICT|INTERRES
   115   59   60 1    
   116   59  125 1    
   117   60   61 1    
   118   60   62 1    
   119   60  126 1    
   120   61  127 1    
   121   61  128 1    
   122   61  129 1    
   123   62   63 2    
   124   62   64 am   BACKBONE|DICT|INTERRES
   125   64   65 1    
   126   64  130 1    
   127   65   66 1    
   128   65   69 1    
   129   65  131 1    
   130   66   67 am   BACKBONE|DICT|INTERRES
   131   66   68 2    
   132   67  132 1    
   133   67  133 1    
   134   69   70 1    
   135   69  134 1    
   136   69  135 1    
   137   70   71 1    
   138   71  136 1    
   139   71  137 1    
@<TRIPOS>SUBSTRUCTURE
     1 UNK         1 GROUP             0       ****    0 ROOT    
