@<TRIPOS>MOLECULE
3R137
137   139    1
SMALL
USER_CHARGES


@<TRIPOS>ATOM
      1 CA         30.2496   -5.4432   -5.4393 C.3       0 UNK        -0.2020 
      2 C          29.0312   -5.7255   -4.5733 C.2       0 UNK         0.4855 
      3 O          28.5334   -6.8514   -4.5608 O.2       0 UNK        -0.5197 
      4 N          28.5456   -4.7100   -3.8552 N.am      1 UNK        -0.4892 
      5 CA         27.3509   -4.7475   -3.0150 C.3       1 UNK         0.0835 
      6 C6         27.5967   -5.4572   -1.6504 C.3       12 UNK        -0.0855 
      7 S7         28.3840   -4.4762   -0.3216 S.3       12 UNK        -0.2931 
      8 C8         30.1554   -4.5248   -0.7612 C.3       12 UNK         0.0378 
      9 C9         30.6218   -3.2810   -1.5151 C.ar      12 UNK        -0.0802 
     10 C10        31.4661   -3.4069   -2.6233 C.ar      12 UNK        -0.0944 
     11 C11        31.9338   -2.2754   -3.3014 C.ar      12 UNK        -0.0787 
     12 C12        31.5373   -1.0066   -2.8625 C.ar      12 UNK        -0.0862 
     13 C13        30.7087   -0.8606   -1.7463 C.ar      12 UNK        -0.0733 
     14 C14        30.2595   -2.0020   -1.0768 C.ar      12 UNK        -0.0832 
     15 C15        30.3132    0.5231   -1.2368 C.3       12 UNK         0.0240 
     16 S16        29.7249    1.6525   -2.5440 S.3       12 UNK        -0.2522 
     17 C17        28.2857    0.7466   -3.1980 C.3       12 UNK        -0.0967 
     18 CA         28.1262    0.9409   -4.7279 C.3       5 UNK         0.0660 
     19 N          27.4981   -0.2172   -5.3645 N.am      5 UNK        -0.4015 
     20 C          27.3457   -0.3965   -6.6837 C.2       4 UNK         0.4946 
     21 O          27.8082    0.3547   -7.5407 O.2       4 UNK        -0.5353 
     22 CA         26.4950   -1.5958   -7.1279 C.3       4 UNK         0.0277 
     23 CB         27.3520   -2.8652   -7.2444 C.3       4 UNK        -0.1981 
     24 N          25.3608   -1.8320   -6.2322 N.am      4 UNK        -0.4209 
     25 C          24.3104   -1.0057   -6.1161 C.2       3 UNK         0.4942 
     26 O          24.1678    0.0197   -6.7814 O.2       3 UNK        -0.5208 
     27 CA         23.2663   -1.3608   -5.0453 C.3       3 UNK         0.0250 
     28 CB         22.2899   -2.4264   -5.5681 C.3       3 UNK        -0.1990 
     29 N          23.8761   -1.8179   -3.7938 N.am      3 UNK        -0.4232 
     30 C          24.6299   -1.0474   -2.9967 C.2       2 UNK         0.4993 
     31 O          24.8736    0.1393   -3.2182 O.2       2 UNK        -0.5286 
     32 CA         25.2634   -1.7331   -1.7749 C.3       2 UNK         0.0209 
     33 CB         24.2591   -1.8159   -0.6146 C.3       2 UNK        -0.1931 
     34 N          25.8100   -3.0684   -2.0535 N.am      2 UNK        -0.4546 
     35 C          26.7847   -3.3151   -2.9407 C.2       1 UNK         0.5154 
     36 O          27.2346   -2.4522   -3.6994 O.2       1 UNK        -0.5181 
     37 C          27.3650    2.2410   -5.0519 C.2       5 UNK         0.5014 
     38 O          27.9773    3.2010   -5.5207 O.2       5 UNK        -0.5248 
     39 N          26.0399    2.2319   -4.8354 N.am      6 UNK        -0.4434 
     40 CA         25.1340    3.3490   -5.1207 C.3       6 UNK         0.0363 
     41 CB         23.7251    3.0105   -4.6083 C.3       6 UNK        -0.1936 
     42 C          25.0912    3.7360   -6.6092 C.2       6 UNK         0.5081 
     43 O          25.0555    4.9255   -6.9248 O.2       6 UNK        -0.5248 
     44 N          25.1222    2.7317   -7.4948 N.am      7 UNK        -0.4718 
     45 CA         25.1939    2.9069   -8.9477 C.3       7 UNK         0.0273 
     46 CB         24.7605    1.5950   -9.6228 C.3       7 UNK        -0.1935 
     47 C          26.5864    3.3265   -9.4578 C.2       7 UNK         0.5018 
     48 O          26.6870    3.7507  -10.6097 O.2       7 UNK        -0.5186 
     49 N          27.6260    3.1669   -8.6220 N.am      8 UNK        -0.4240 
     50 CA         29.0568    3.2887   -8.9365 C.3       8 UNK         0.0235 
     51 CB         29.4338    4.7519   -9.2504 C.3       8 UNK        -0.2000 
     52 C          29.4924    2.2962  -10.0352 C.2       8 UNK         0.4941 
     53 O          30.2646    2.6513  -10.9279 O.2       8 UNK        -0.5273 
     54 N          28.9549    1.0728   -9.9576 N.am      9 UNK        -0.4262 
     55 CA         29.0865    0.0183  -10.9620 C.3       9 UNK         0.0264 
     56 CB         27.7161   -0.6607  -11.1312 C.3       9 UNK        -0.1955 
     57 C          30.1578   -1.0255  -10.6072 C.2       9 UNK         0.5031 
     58 O          30.4784   -1.8523  -11.4633 O.2       9 UNK        -0.5390 
     59 N          30.6852   -0.9951   -9.3770 N.am      10 UNK        -0.4204 
     60 CA         31.7108   -1.9143   -8.8891 C.3       10 UNK         0.0237 
     61 CB         31.0476   -3.0443   -8.0807 C.3       10 UNK        -0.1985 
     62 C          32.7246   -1.1544   -8.0284 C.2       10 UNK         0.4970 
     63 O          32.3539   -0.1741   -7.3778 O.2       10 UNK        -0.4914 
     64 N          33.9614   -1.6691   -8.0287 N.am      11 UNK        -0.4285 
     65 CA         35.1466   -1.2043   -7.2894 C.3       11 UNK         0.1007 
     66 C          35.4504    0.3243   -7.3859 C.2       11 UNK         0.5703 
     67 N          36.1037    0.9183   -6.3948 N.am      11 UNK        -0.7361 
     68 O          35.1679    0.9637   -8.3993 O.2       11 UNK        -0.4986 
     69 C69        35.2735   -1.8662   -5.8826 C.3       12 UNK        -0.0947 
     70 S70        34.1938   -1.2028   -4.5696 S.3       12 UNK        -0.2240 
     71 C71        32.8545   -2.4423   -4.5085 C.3       12 UNK         0.0194 
     72 H72        31.0839   -6.0730   -5.1320 H         1 UNK         0.0906 
     73 H73        30.0254   -5.6581   -6.4839 H         1 UNK         0.0906 
     74 H74        30.5644   -4.4029   -5.3680 H         1 UNK         0.0906 
     75 H75        28.9452   -3.7816   -3.9276 H         1 UNK         0.3140 
     76 H76        26.5976   -5.3240   -3.5567 H         1 UNK         0.1085 
     77 H77        28.1691   -6.3744   -1.7974 H         1 UNK         0.0836 
     78 H78        26.6375   -5.7960   -1.2560 H         1 UNK         0.0836 
     79 H79        30.3654   -5.4306   -1.3321 H         1 UNK         0.0731 
     80 H80        30.7364   -4.6017    0.1587 H         1 UNK         0.0731 
     81 H81        31.7686   -4.3912   -2.9536 H         1 UNK         0.1312 
     82 H82        31.8831   -0.1247   -3.3838 H         1 UNK         0.1406 
     83 H83        29.6272   -1.8969   -0.2054 H         1 UNK         0.1631 
     84 H84        31.1782    0.9744   -0.7494 H         1 UNK         0.0717 
     85 H85        29.5354    0.4468   -0.4752 H         1 UNK         0.0717 
     86 H86        28.4262   -0.3103   -2.9766 H         1 UNK         0.0934 
     87 H87        27.3914    1.0397   -2.6448 H         1 UNK         0.0934 
     88 H88        29.1200    1.0200   -5.1752 H         1 UNK         0.0739 
     89 H89        27.1639   -0.9471   -4.7389 H         1 UNK         0.3093 
     90 H90        26.0923   -1.3676   -8.1168 H         1 UNK         0.0818 
     91 H91        27.8340   -3.1216   -6.3008 H         1 UNK         0.0819 
     92 H92        26.7564   -3.7209   -7.5623 H         1 UNK         0.0819 
     93 H93        28.1368   -2.7273   -7.9882 H         1 UNK         0.0819 
     94 H94        25.4194   -2.6311   -5.6189 H         1 UNK         0.3041 
     95 H95        22.6968   -0.4544   -4.8280 H         1 UNK         0.0784 
     96 H96        21.8139   -2.0972   -6.4929 H         1 UNK         0.0793 
     97 H97        22.7922   -3.3714   -5.7787 H         1 UNK         0.0793 
     98 H98        21.4943   -2.6217   -4.8488 H         1 UNK         0.0793 
     99 H99        23.7310   -2.7824   -3.5327 H         1 UNK         0.3024 
    100 H100       26.0972   -1.1034   -1.4555 H         1 UNK         0.1171 
    101 H101       24.7328   -2.1911    0.2930 H         1 UNK         0.0786 
    102 H102       23.8511   -0.8314   -0.3806 H         1 UNK         0.0786 
    103 H103       23.4187   -2.4699   -0.8502 H         1 UNK         0.0786 
    104 H104       25.4974   -3.8193   -1.4549 H         1 UNK         0.2977 
    105 H105       25.6205    1.4078   -4.4082 H         1 UNK         0.3127 
    106 H106       25.4996    4.2158   -4.5664 H         1 UNK         0.0770 
    107 H107       23.3166    2.1299   -5.1054 H         1 UNK         0.0814 
    108 H108       23.0353    3.8365   -4.7858 H         1 UNK         0.0814 
    109 H109       23.7295    2.8155   -3.5356 H         1 UNK         0.0814 
    110 H110       25.0680    1.7762   -7.1525 H         1 UNK         0.2983 
    111 H111       24.4913    3.6913   -9.2375 H         1 UNK         0.0947 
    112 H112       24.7695    1.6892  -10.7096 H         1 UNK         0.0806 
    113 H113       23.7487    1.3136   -9.3304 H         1 UNK         0.0806 
    114 H114       25.4252    0.7714   -9.3600 H         1 UNK         0.0806 
    115 H115       27.4239    2.8103   -7.6954 H         1 UNK         0.3000 
    116 H116       29.5914    2.9952   -8.0315 H         1 UNK         0.0850 
    117 H117       30.5134    4.8610   -9.3600 H         1 UNK         0.0810 
    118 H118       29.1203    5.4211   -8.4490 H         1 UNK         0.0810 
    119 H119       28.9768    5.0997  -10.1772 H         1 UNK         0.0810 
    120 H120       28.3874    0.8527   -9.1374 H         1 UNK         0.3040 
    121 H121       29.3673    0.4580  -11.9218 H         1 UNK         0.0766 
    122 H122       26.9530    0.0581  -11.4308 H         1 UNK         0.0812 
    123 H123       27.3860   -1.1371  -10.2076 H         1 UNK         0.0812 
    124 H124       27.7527   -1.4321  -11.9016 H         1 UNK         0.0812 
    125 H125       30.4268   -0.2511   -8.7412 H         1 UNK         0.3205 
    126 H126       32.2486   -2.3512   -9.7347 H         1 UNK         0.0754 
    127 H127       31.7923   -3.7427   -7.6961 H         1 UNK         0.0769 
    128 H128       30.3567   -3.6191   -8.6982 H         1 UNK         0.0769 
    129 H129       30.4921   -2.6522   -7.2271 H         1 UNK         0.0769 
    130 H130       34.1324   -2.4664   -8.6244 H         1 UNK         0.2981 
    131 H131       35.9662   -1.6310   -7.8688 H         1 UNK         0.0541 
    132 H132       36.3351    0.4096   -5.5545 H         1 UNK         0.3459 
    133 H133       36.3263    1.8985   -6.4700 H         1 UNK         0.3459 
    134 H134       35.1089   -2.9414   -5.9683 H         1 UNK         0.0612 
    135 H135       36.3017   -1.7711   -5.5296 H         1 UNK         0.0612 
    136 H136       33.3003   -3.4387   -4.5027 H         1 UNK         0.0624 
    137 H137       32.2561   -2.3686   -5.4158 H         1 UNK         0.0624 
@<TRIPOS>BOND
     1    1    2 1    
     2    1   72 1    
     3    1   73 1    
     4    1   74 1    
     5    2    3 2    
     6    2    4 am   BACKBONE|DICT|INTERRES
     7    4    5 1    
     8    4   75 1    
     9    5    6 1    
    10    5   35 1    
    11    5   76 1    
    12    6    7 1    
    13    6   77 1    
    14    6   78 1    
    15    7    8 1    
    16    8    9 1    
    17    8   79 1    
    18    8   80 1    
    19    9   10 ar   
    20    9   14 ar   
    21   10   11 ar   
    22   10   81 1    
    23   11   12 ar   
    24   11   71 1    
    25   12   13 ar   
    26   12   82 1    
    27   13   14 ar   
    28   13   15 1    
    29   14   83 1    
    30   15   16 1    
    31   15   84 1    
    32   15   85 1    
    33   16   17 1    
    34   17   18 1    
    35   17   86 1    
    36   17   87 1    
    37   18   19 1    
    38   18   37 1    
    39   18   88 1    
    40   19   20 am   BACKBONE|DICT|INTERRES
    41   19   89 1    
    42   20   21 2    
    43   20   22 1    
    44   22   23 1    
    45   22   24 1    
    46   22   90 1    
    47   23   91 1    
    48   23   92 1    
    49   23   93 1    
    50   24   25 am   BACKBONE|DICT|INTERRES
    51   24   94 1    
    52   25   26 2    
    53   25   27 1    
    54   27   28 1    
    55   27   29 1    
    56   27   95 1    
    57   28   96 1    
    58   28   97 1    
    59   28   98 1    
    60   29   30 am   BACKBONE|DICT|INTERRES
    61   29   99 1    
    62   30   31 2    
    63   30   32 1    
    64   32   33 1    
    65   32   34 1    
    66   32  100 1    
    67   33  101 1    
    68   33  102 1    
    69   33  103 1    
    70   34   35 am   BACKBONE|DICT|INTERRES
    71   34  104 1    
    72   35   36 2    
    73   37   38 2    
    74   37   39 am   BACKBONE|DICT|INTERRES
    75   39   40 1    
    76   39  105 1    
    77   40   41 1    
    78   40   42 1    
    79   40  106 1    
    80   41  107 1    
    81   41  108 1    
    82   41  109 1    
    83   42   43 2    
    84   42   44 am   BACKBONE|DICT|INTERRES
    85   44   45 1    
    86   44  110 1    
    87   45   46 1    
    88   45   47 1    
    89   45  111 1    
    90   46  112 1    
    91   46  113 1    
    92   46  114 1    
    93   47   48 2    
    94   47   49 am   BACKBONE|DICT|INTERRES
    95   49   50 1    
    96   49  115 1    
    97   50   51 1    
    98   50   52 1    
    99   50  116 1    
   100   51  117 1    
   101   51  118 1    
   102   51  119 1    
   103   52   53 2    
   104   52   54 am   BACKBONE|DICT|INTERRES
   105   54   55 1    
   106   54  120 1    
   107   55   56 1    
   108   55   57 1    
   109   55  121 1    
   110   56  122 1    
   111   56  123 1    
   112   56  124 1    
   113   57   58 2    
   114   57   59 am   BACKBONE|DICT|INTERRES
   115   59   60 1    
   116   59  125 1    
   117   60   61 1    
   118   60   62 1    
   119   60  126 1    
   120   61  127 1    
   121   61  128 1    
   122   61  129 1    
   123   62   63 2    
   124   62   64 am   BACKBONE|DICT|INTERRES
   125   64   65 1    
   126   64  130 1    
   127   65   66 1    
   128   65   69 1    
   129   65  131 1    
   130   66   67 am   BACKBONE|DICT|INTERRES
   131   66   68 2    
   132   67  132 1    
   133   67  133 1    
   134   69   70 1    
   135   69  134 1    
   136   69  135 1    
   137   70   71 1    
   138   71  136 1    
   139   71  137 1    
@<TRIPOS>SUBSTRUCTURE
     1 UNK         1 GROUP             0       ****    0 ROOT    
