@<TRIPOS>MOLECULE
3R137
137   139    1
SMALL
USER_CHARGES


@<TRIPOS>ATOM
      1 CA         27.5802   -1.9199    2.8952 C.3       0 UNK        -0.2020 
      2 C          27.2403   -2.5593    1.5572 C.2       0 UNK         0.4855 
      3 O          26.3324   -3.3883    1.4938 O.2       0 UNK        -0.5197 
      4 N          27.9587   -2.1691    0.4927 N.am      1 UNK        -0.4892 
      5 CA         27.8294   -2.6727   -0.8888 C.3       1 UNK         0.0835 
      6 C6         28.1543   -4.1880   -1.0338 C.3       12 UNK        -0.0855 
      7 S7         29.7670   -4.6406   -0.3023 S.3       12 UNK        -0.2931 
      8 C8         30.7220   -5.1689   -1.7651 C.3       12 UNK         0.0378 
      9 C9         31.0016   -4.0699   -2.7903 C.ar      12 UNK        -0.0802 
     10 C10        31.1526   -4.4280   -4.1330 C.ar      12 UNK        -0.0944 
     11 C11        31.4632   -3.4662   -5.0964 C.ar      12 UNK        -0.0787 
     12 C12        31.5938   -2.1278   -4.7170 C.ar      12 UNK        -0.0862 
     13 C13        31.4413   -1.7470   -3.3803 C.ar      12 UNK        -0.0733 
     14 C14        31.1653   -2.7277   -2.4214 C.ar      12 UNK        -0.0832 
     15 C15        31.6189   -0.2929   -2.9462 C.3       12 UNK         0.0240 
     16 S16        30.8067    0.9267   -4.0376 S.3       12 UNK        -0.2522 
     17 C17        29.0462    0.4569   -3.9109 C.3       12 UNK        -0.0967 
     18 CA         28.3878    0.3527   -5.3125 C.3       5 UNK         0.0660 
     19 N          27.4570   -0.7750   -5.3998 N.am      5 UNK        -0.4015 
     20 C          27.1018   -1.3706   -6.5465 C.2       4 UNK         0.4946 
     21 O          27.4971   -1.0231   -7.6591 O.2       4 UNK        -0.5353 
     22 CA         26.0946   -2.5257   -6.4291 C.3       4 UNK         0.0277 
     23 CB         26.7698   -3.7921   -5.8754 C.3       4 UNK        -0.1981 
     24 N          24.9409   -2.1743   -5.5980 N.am      4 UNK        -0.4209 
     25 C          24.0444   -1.2297   -5.9198 C.2       3 UNK         0.4942 
     26 O          24.0844   -0.5737   -6.9594 O.2       3 UNK        -0.5208 
     27 CA         22.9275   -0.9364   -4.9041 C.3       3 UNK         0.0250 
     28 CB         21.7102   -1.8344   -5.1770 C.3       3 UNK        -0.1990 
     29 N          23.3203   -1.0674   -3.4983 N.am      3 UNK        -0.4232 
     30 C          24.3583   -0.4651   -2.9001 C.2       2 UNK         0.4993 
     31 O          25.1773    0.2434   -3.4893 O.2       2 UNK        -0.5286 
     32 CA         24.5297   -0.6996   -1.3877 C.3       2 UNK         0.0209 
     33 CB         23.4512   -1.6112   -0.7564 C.3       2 UNK        -0.1931 
     34 N          25.8642   -1.2042   -1.0492 N.am      2 UNK        -0.4546 
     35 C          26.4754   -2.2962   -1.5373 C.2       1 UNK         0.5154 
     36 O          26.0168   -2.9858   -2.4513 O.2       1 UNK        -0.5181 
     37 C          27.7265    1.6801   -5.7436 C.2       5 UNK         0.5014 
     38 O          28.4162    2.5671   -6.2463 O.2       5 UNK        -0.5248 
     39 N          26.4041    1.8040   -5.5520 N.am      6 UNK        -0.4434 
     40 CA         25.6091    2.9420   -6.0188 C.3       6 UNK         0.0363 
     41 CB         24.2176    2.9062   -5.3697 C.3       6 UNK        -0.1936 
     42 C          25.4873    2.9962   -7.5521 C.2       6 UNK         0.5081 
     43 O          25.4722    4.0937   -8.1103 O.2       6 UNK        -0.5248 
     44 N          25.4035    1.8269   -8.2060 N.am      7 UNK        -0.4718 
     45 CA         25.3391    1.6956   -9.6649 C.3       7 UNK         0.0273 
     46 CB         24.9857    0.2491  -10.0459 C.3       7 UNK        -0.1935 
     47 C          26.6321    2.1417  -10.3671 C.2       7 UNK         0.5018 
     48 O          26.5543    2.8067  -11.4014 O.2       7 UNK        -0.5186 
     49 N          27.7874    1.7941   -9.7888 N.am      8 UNK        -0.4240 
     50 CA         29.1082    2.2223  -10.2368 C.3       8 UNK         0.0235 
     51 CB         29.5625    1.4002  -11.4578 C.3       8 UNK        -0.2000 
     52 C          30.0858    2.0617   -9.0721 C.2       8 UNK         0.4941 
     53 O          30.0983    1.0037   -8.4395 O.2       8 UNK        -0.5273 
     54 N          30.9048    3.0921   -8.8221 N.am      9 UNK        -0.4262 
     55 CA         31.9433    3.0857   -7.7895 C.3       9 UNK         0.0264 
     56 CB         32.5712    4.4849   -7.6776 C.3       9 UNK        -0.1955 
     57 C          33.0064    2.0211   -8.1038 C.2       9 UNK         0.5031 
     58 O          33.6264    2.0872   -9.1674 O.2       9 UNK        -0.5390 
     59 N          33.1509    1.0479   -7.1939 N.am      10 UNK        -0.4204 
     60 CA         33.9479   -0.1790   -7.3356 C.3       10 UNK         0.0237 
     61 CB         35.4511    0.1358   -7.4998 C.3       10 UNK        -0.1985 
     62 C          33.4159   -1.1479   -8.4174 C.2       10 UNK         0.4970 
     63 O          34.1694   -2.0129   -8.8677 O.2       10 UNK        -0.4914 
     64 N          32.1282   -1.0265   -8.7746 N.am      11 UNK        -0.4285 
     65 CA         31.3971   -1.8633   -9.7406 C.3       11 UNK         0.1007 
     66 C          31.9565   -1.7648  -11.1937 C.2       11 UNK         0.5703 
     67 N          31.6596   -2.7224  -12.0635 N.am      11 UNK        -0.7361 
     68 O          32.6127   -0.7945  -11.5678 O.2       11 UNK        -0.4986 
     69 C69        31.1741   -3.3217   -9.2357 C.3       12 UNK        -0.0947 
     70 S70        30.3335   -3.3768   -7.6168 S.3       12 UNK        -0.2240 
     71 C71        31.7075   -3.8739   -6.5391 C.3       12 UNK         0.0194 
     72 H72        27.8780   -2.6860    3.6106 H         1 UNK         0.0906 
     73 H73        28.3950   -1.2011    2.8108 H         1 UNK         0.0906 
     74 H74        26.7096   -1.4005    3.2950 H         1 UNK         0.0906 
     75 H75        28.6923   -1.4870    0.6302 H         1 UNK         0.3140 
     76 H76        28.5715   -2.1286   -1.4726 H         1 UNK         0.1085 
     77 H77        28.1480   -4.4791   -2.0861 H         1 UNK         0.0836 
     78 H78        27.3829   -4.7925   -0.5538 H         1 UNK         0.0836 
     79 H79        30.1926   -5.9987   -2.2364 H         1 UNK         0.0731 
     80 H80        31.6779   -5.5689   -1.4249 H         1 UNK         0.0731 
     81 H81        31.0542   -5.4644   -4.4266 H         1 UNK         0.1312 
     82 H82        31.8193   -1.3840   -5.4666 H         1 UNK         0.1406 
     83 H83        31.0857   -2.4439   -1.3812 H         1 UNK         0.1631 
     84 H84        32.6862   -0.0710   -2.9127 H         1 UNK         0.0717 
     85 H85        31.2430   -0.1456   -1.9324 H         1 UNK         0.0717 
     86 H86        28.9863   -0.5016   -3.3949 H         1 UNK         0.0934 
     87 H87        28.5262    1.1652   -3.2621 H         1 UNK         0.0934 
     88 H88        29.1737    0.1487   -6.0439 H         1 UNK         0.0739 
     89 H89        27.0142   -1.0726   -4.5421 H         1 UNK         0.3093 
     90 H90        25.7271   -2.7485   -7.4333 H         1 UNK         0.0818 
     91 H91        27.1686   -3.6390   -4.8719 H         1 UNK         0.0819 
     92 H92        26.0724   -4.6287   -5.8346 H         1 UNK         0.0819 
     93 H93        27.6016   -4.0973   -6.5110 H         1 UNK         0.0819 
     94 H94        24.8564   -2.6403   -4.7040 H         1 UNK         0.3041 
     95 H95        22.6172    0.0986   -5.0513 H         1 UNK         0.0784 
     96 H96        21.3803   -1.7403   -6.2129 H         1 UNK         0.0793 
     97 H97        21.9368   -2.8869   -5.0016 H         1 UNK         0.0793 
     98 H98        20.8645   -1.5619   -4.5454 H         1 UNK         0.0793 
     99 H99        22.7266   -1.6478   -2.9238 H         1 UNK         0.3024 
    100 H100       24.4422    0.2853   -0.9261 H         1 UNK         0.1171 
    101 H101       23.6034   -1.7028    0.3194 H         1 UNK         0.0786 
    102 H102       22.4490   -1.2040   -0.8976 H         1 UNK         0.0786 
    103 H103       23.4697   -2.6198   -1.1719 H         1 UNK         0.0786 
    104 H104       26.3502   -0.6953   -0.3243 H         1 UNK         0.2977 
    105 H105       25.9135    1.0840   -5.0267 H         1 UNK         0.3127 
    106 H106       26.1107    3.8556   -5.6923 H         1 UNK         0.0770 
    107 H107       23.6438    2.0433   -5.7045 H         1 UNK         0.0814 
    108 H108       24.2835    2.8686   -4.2822 H         1 UNK         0.0814 
    109 H109       23.6449    3.7970   -5.6310 H         1 UNK         0.0814 
    110 H110       25.3483    0.9672   -7.6701 H         1 UNK         0.2983 
    111 H111       24.5351    2.3436  -10.0207 H         1 UNK         0.0947 
    112 H112       24.9427    0.1287  -11.1292 H         1 UNK         0.0806 
    113 H113       24.0111   -0.0371   -9.6504 H         1 UNK         0.0806 
    114 H114       25.7217   -0.4605   -9.6665 H         1 UNK         0.0806 
    115 H115       27.7789    1.2401   -8.9389 H         1 UNK         0.3000 
    116 H116       29.0608    3.2780  -10.5130 H         1 UNK         0.0850 
    117 H117       30.5891    1.6433  -11.7357 H         1 UNK         0.0810 
    118 H118       28.9359    1.5979  -12.3274 H         1 UNK         0.0810 
    119 H119       29.5234    0.3298  -11.2562 H         1 UNK         0.0810 
    120 H120       30.8584    3.9116   -9.4097 H         1 UNK         0.3040 
    121 H121       31.4631    2.8494   -6.8366 H         1 UNK         0.0766 
    122 H122       33.3393    4.5050   -6.9034 H         1 UNK         0.0812 
    123 H123       31.8255    5.2348   -7.4127 H         1 UNK         0.0812 
    124 H124       33.0425    4.7934   -8.6118 H         1 UNK         0.0812 
    125 H125       32.5772    1.0978   -6.3623 H         1 UNK         0.3205 
    126 H126       33.8420   -0.7107   -6.3897 H         1 UNK         0.0754 
    127 H127       36.0513   -0.7711   -7.4159 H         1 UNK         0.0769 
    128 H128       35.7997    0.8244   -6.7302 H         1 UNK         0.0769 
    129 H129       35.6710    0.5776   -8.4719 H         1 UNK         0.0769 
    130 H130       31.5770   -0.2605   -8.3991 H         1 UNK         0.2981 
    131 H131       30.4115   -1.4021   -9.8049 H         1 UNK         0.0541 
    132 H132       31.1047   -3.5191  -11.7948 H         1 UNK         0.3459 
    133 H133       32.0031   -2.6464  -13.0081 H         1 UNK         0.3459 
    134 H134       32.1182   -3.8668   -9.1904 H         1 UNK         0.0612 
    135 H135       30.5381   -3.8745   -9.9279 H         1 UNK         0.0612 
    136 H136       31.8496   -4.9523   -6.6231 H         1 UNK         0.0624 
    137 H137       32.6374   -3.4182   -6.8771 H         1 UNK         0.0624 
@<TRIPOS>BOND
     1    1    2 1    
     2    1   72 1    
     3    1   73 1    
     4    1   74 1    
     5    2    3 2    
     6    2    4 am   BACKBONE|DICT|INTERRES
     7    4    5 1    
     8    4   75 1    
     9    5    6 1    
    10    5   35 1    
    11    5   76 1    
    12    6    7 1    
    13    6   77 1    
    14    6   78 1    
    15    7    8 1    
    16    8    9 1    
    17    8   79 1    
    18    8   80 1    
    19    9   10 ar   
    20    9   14 ar   
    21   10   11 ar   
    22   10   81 1    
    23   11   12 ar   
    24   11   71 1    
    25   12   13 ar   
    26   12   82 1    
    27   13   14 ar   
    28   13   15 1    
    29   14   83 1    
    30   15   16 1    
    31   15   84 1    
    32   15   85 1    
    33   16   17 1    
    34   17   18 1    
    35   17   86 1    
    36   17   87 1    
    37   18   19 1    
    38   18   37 1    
    39   18   88 1    
    40   19   20 am   BACKBONE|DICT|INTERRES
    41   19   89 1    
    42   20   21 2    
    43   20   22 1    
    44   22   23 1    
    45   22   24 1    
    46   22   90 1    
    47   23   91 1    
    48   23   92 1    
    49   23   93 1    
    50   24   25 am   BACKBONE|DICT|INTERRES
    51   24   94 1    
    52   25   26 2    
    53   25   27 1    
    54   27   28 1    
    55   27   29 1    
    56   27   95 1    
    57   28   96 1    
    58   28   97 1    
    59   28   98 1    
    60   29   30 am   BACKBONE|DICT|INTERRES
    61   29   99 1    
    62   30   31 2    
    63   30   32 1    
    64   32   33 1    
    65   32   34 1    
    66   32  100 1    
    67   33  101 1    
    68   33  102 1    
    69   33  103 1    
    70   34   35 am   BACKBONE|DICT|INTERRES
    71   34  104 1    
    72   35   36 2    
    73   37   38 2    
    74   37   39 am   BACKBONE|DICT|INTERRES
    75   39   40 1    
    76   39  105 1    
    77   40   41 1    
    78   40   42 1    
    79   40  106 1    
    80   41  107 1    
    81   41  108 1    
    82   41  109 1    
    83   42   43 2    
    84   42   44 am   BACKBONE|DICT|INTERRES
    85   44   45 1    
    86   44  110 1    
    87   45   46 1    
    88   45   47 1    
    89   45  111 1    
    90   46  112 1    
    91   46  113 1    
    92   46  114 1    
    93   47   48 2    
    94   47   49 am   BACKBONE|DICT|INTERRES
    95   49   50 1    
    96   49  115 1    
    97   50   51 1    
    98   50   52 1    
    99   50  116 1    
   100   51  117 1    
   101   51  118 1    
   102   51  119 1    
   103   52   53 2    
   104   52   54 am   BACKBONE|DICT|INTERRES
   105   54   55 1    
   106   54  120 1    
   107   55   56 1    
   108   55   57 1    
   109   55  121 1    
   110   56  122 1    
   111   56  123 1    
   112   56  124 1    
   113   57   58 2    
   114   57   59 am   BACKBONE|DICT|INTERRES
   115   59   60 1    
   116   59  125 1    
   117   60   61 1    
   118   60   62 1    
   119   60  126 1    
   120   61  127 1    
   121   61  128 1    
   122   61  129 1    
   123   62   63 2    
   124   62   64 am   BACKBONE|DICT|INTERRES
   125   64   65 1    
   126   64  130 1    
   127   65   66 1    
   128   65   69 1    
   129   65  131 1    
   130   66   67 am   BACKBONE|DICT|INTERRES
   131   66   68 2    
   132   67  132 1    
   133   67  133 1    
   134   69   70 1    
   135   69  134 1    
   136   69  135 1    
   137   70   71 1    
   138   71  136 1    
   139   71  137 1    
@<TRIPOS>SUBSTRUCTURE
     1 UNK         1 GROUP             0       ****    0 ROOT    
