@<TRIPOS>MOLECULE
3R137
137   139    1
SMALL
USER_CHARGES


@<TRIPOS>ATOM
      1 CA         22.8082   -6.5200   -3.3075 C.3       0 UNK        -0.2020 
      2 C          23.6354   -5.9036   -2.1891 C.2       0 UNK         0.4855 
      3 O          23.1387   -5.7510   -1.0725 O.2       0 UNK        -0.5197 
      4 N          24.8955   -5.5553   -2.4783 N.am      1 UNK        -0.4892 
      5 CA         25.8021   -4.8604   -1.5575 C.3       1 UNK         0.0835 
      6 C6         27.2709   -4.9690   -2.0381 C.3       12 UNK        -0.0855 
      7 S7         28.4744   -5.0364   -0.6625 S.3       12 UNK        -0.2931 
      8 C8         29.3798   -3.4509   -0.8188 C.3       12 UNK         0.0378 
      9 C9         30.3010   -3.2978   -2.0350 C.ar      12 UNK        -0.0802 
     10 C10        31.1003   -2.1494   -2.1231 C.ar      12 UNK        -0.0944 
     11 C11        31.8959   -1.9150   -3.2504 C.ar      12 UNK        -0.0787 
     12 C12        31.9077   -2.8446   -4.2900 C.ar      12 UNK        -0.0862 
     13 C13        31.0645   -3.9544   -4.2470 C.ar      12 UNK        -0.0733 
     14 C14        30.3135   -4.2098   -3.0998 C.ar      12 UNK        -0.0832 
     15 C15        30.8114   -4.7557   -5.5127 C.3       12 UNK         0.0240 
     16 S16        29.2664   -4.1868   -6.3177 S.3       12 UNK        -0.2522 
     17 C17        29.5046   -2.3726   -6.3358 C.3       12 UNK        -0.0967 
     18 CA         28.3573   -1.5918   -7.0079 C.3       5 UNK         0.0660 
     19 N          27.1098   -1.6977   -6.2459 N.am      5 UNK        -0.4015 
     20 C          25.9047   -1.3466   -6.7114 C.2       4 UNK         0.4946 
     21 O          25.7014   -0.9496   -7.8596 O.2       4 UNK        -0.5353 
     22 CA         24.7422   -1.4022   -5.7033 C.3       4 UNK         0.0277 
     23 CB         24.2716   -2.8516   -5.4961 C.3       4 UNK        -0.1981 
     24 N          25.0571   -0.7825   -4.4052 N.am      4 UNK        -0.4209 
     25 C          25.3969    0.5096   -4.2545 C.2       3 UNK         0.4942 
     26 O          25.5221    1.2779   -5.2072 O.2       3 UNK        -0.5208 
     27 CA         25.6531    1.0646   -2.8408 C.3       3 UNK         0.0250 
     28 CB         24.9170    2.4005   -2.6282 C.3       3 UNK        -0.1990 
     29 N          25.2545    0.1373   -1.7832 N.am      3 UNK        -0.4232 
     30 C          26.0799   -0.4222   -0.8897 C.2       2 UNK         0.4993 
     31 O          27.2946   -0.2240   -0.8506 O.2       2 UNK        -0.5286 
     32 CA         25.4512   -1.3936    0.1283 C.3       2 UNK         0.0209 
     33 CB         23.9429   -1.1553    0.3734 C.3       2 UNK        -0.1931 
     34 N          25.6989   -2.7942   -0.2353 N.am      2 UNK        -0.4546 
     35 C          25.3819   -3.3858   -1.3960 C.2       1 UNK         0.5154 
     36 O          24.8200   -2.8074   -2.3314 O.2       1 UNK        -0.5181 
     37 C          28.7828   -0.1222   -7.2082 C.2       5 UNK         0.5014 
     38 O          29.3606    0.1956   -8.2475 O.2       5 UNK        -0.5248 
     39 N          28.5004    0.7496   -6.2280 N.am      6 UNK        -0.4434 
     40 CA         28.8250    2.1781   -6.2774 C.3       6 UNK         0.0363 
     41 CB         28.6539    2.8128   -4.8884 C.3       6 UNK        -0.1936 
     42 C          27.9932    2.9217   -7.3326 C.2       6 UNK         0.5081 
     43 O          28.5451    3.7378   -8.0686 O.2       6 UNK        -0.5248 
     44 N          26.7023    2.5773   -7.4408 N.am      7 UNK        -0.4718 
     45 CA         25.7897    3.0512   -8.4865 C.3       7 UNK         0.0273 
     46 CB         24.3649    2.5709   -8.1694 C.3       7 UNK        -0.1935 
     47 C          26.2095    2.6100   -9.9012 C.2       7 UNK         0.5018 
     48 O          25.9835    3.3509  -10.8582 O.2       7 UNK        -0.5186 
     49 N          26.8448    1.4342  -10.0009 N.am      8 UNK        -0.4240 
     50 CA         27.4616    0.9106  -11.2224 C.3       8 UNK         0.0235 
     51 CB         27.4958   -0.6256  -11.1373 C.3       8 UNK        -0.2000 
     52 C          28.8757    1.4722  -11.4826 C.2       8 UNK         0.4941 
     53 O          29.4530    1.1546  -12.5231 O.2       8 UNK        -0.5273 
     54 N          29.4173    2.2656  -10.5430 N.am      9 UNK        -0.4262 
     55 CA         30.7676    2.8438  -10.5124 C.3       9 UNK         0.0264 
     56 CB         30.9711    3.8414  -11.6724 C.3       9 UNK        -0.1955 
     57 C          31.8963    1.7954  -10.4218 C.2       9 UNK         0.5031 
     58 O          33.0318    2.0889  -10.8011 O.2       9 UNK        -0.5390 
     59 N          31.5871    0.6013   -9.8981 N.am      10 UNK        -0.4204 
     60 CA         32.5243   -0.5159   -9.7620 C.3       10 UNK         0.0237 
     61 CB         31.7408   -1.8386   -9.7522 C.3       10 UNK        -0.1985 
     62 C          33.4480   -0.3940   -8.5365 C.2       10 UNK         0.4970 
     63 O          34.4663   -1.0856   -8.4945 O.2       10 UNK        -0.4914 
     64 N          33.1087    0.4831   -7.5801 N.am      11 UNK        -0.4285 
     65 CA         33.9684    0.8346   -6.4344 C.3       11 UNK         0.1007 
     66 C          35.2007    1.7137   -6.8050 C.2       11 UNK         0.5703 
     67 N          35.2948    2.2663   -8.0099 N.am      11 UNK        -0.7361 
     68 O          36.0954    1.8910   -5.9817 O.2       11 UNK        -0.4986 
     69 C69        33.1726    1.4748   -5.2633 C.3       12 UNK        -0.0947 
     70 S70        31.8115    0.4253   -4.6652 S.3       12 UNK        -0.2240 
     71 C71        32.6572   -0.6118   -3.4264 C.3       12 UNK         0.0194 
     72 H72        21.9277   -5.9082   -3.5022 H         1 UNK         0.0906 
     73 H73        23.3736   -6.6038   -4.2355 H         1 UNK         0.0906 
     74 H74        22.4745   -7.5173   -3.0223 H         1 UNK         0.0906 
     75 H75        25.2364   -5.6781   -3.4206 H         1 UNK         0.3140 
     76 H76        25.7066   -5.3510   -0.5858 H         1 UNK         0.1085 
     77 H77        27.5219   -4.1699   -2.7393 H         1 UNK         0.0836 
     78 H78        27.4103   -5.8966   -2.5964 H         1 UNK         0.0836 
     79 H79        29.9775   -3.3216    0.0846 H         1 UNK         0.0731 
     80 H80        28.6555   -2.6355   -0.8248 H         1 UNK         0.0731 
     81 H81        31.0681   -1.4134   -1.3310 H         1 UNK         0.1312 
     82 H82        32.4725   -2.6309   -5.1877 H         1 UNK         0.1406 
     83 H83        29.6796   -5.0823   -3.0952 H         1 UNK         0.1631 
     84 H84        30.7314   -5.8181   -5.2783 H         1 UNK         0.0717 
     85 H85        31.6435   -4.6509   -6.2108 H         1 UNK         0.0717 
     86 H86        30.4621   -2.1688   -6.8163 H         1 UNK         0.0934 
     87 H87        29.6019   -2.0164   -5.3094 H         1 UNK         0.0934 
     88 H88        28.1875   -2.0163   -7.9998 H         1 UNK         0.0739 
     89 H89        27.1831   -2.0399   -5.2996 H         1 UNK         0.3093 
     90 H90        23.9130   -0.8388   -6.1367 H         1 UNK         0.0818 
     91 H91        24.0014   -3.3148   -6.4461 H         1 UNK         0.0819 
     92 H92        25.0461   -3.4690   -5.0399 H         1 UNK         0.0819 
     93 H93        23.3919   -2.8945   -4.8535 H         1 UNK         0.0819 
     94 H94        24.9823   -1.3828   -3.5861 H         1 UNK         0.3041 
     95 H95        26.7253    1.2612   -2.7831 H         1 UNK         0.0784 
     96 H96        25.2290    3.1462   -3.3608 H         1 UNK         0.0793 
     97 H97        23.8365    2.2844   -2.7207 H         1 UNK         0.0793 
     98 H98        25.1266    2.8146   -1.6419 H         1 UNK         0.0793 
     99 H99        24.2794   -0.1275   -1.7588 H         1 UNK         0.3024 
    100 H100       25.9685   -1.2154    1.0728 H         1 UNK         0.1171 
    101 H101       23.5841   -1.7677    1.2008 H         1 UNK         0.0786 
    102 H102       23.7464   -0.1156    0.6394 H         1 UNK         0.0786 
    103 H103       23.3321   -1.3976   -0.4969 H         1 UNK         0.0786 
    104 H104       26.2056   -3.3374    0.4505 H         1 UNK         0.2977 
    105 H105       27.9950    0.4261   -5.4180 H         1 UNK         0.3127 
    106 H106       29.8764    2.2690   -6.5591 H         1 UNK         0.0770 
    107 H107       27.6137    2.8146   -4.5645 H         1 UNK         0.0814 
    108 H108       28.9895    3.8506   -4.8963 H         1 UNK         0.0814 
    109 H109       29.2430    2.2893   -4.1351 H         1 UNK         0.0814 
    110 H110       26.3094    1.9454   -6.7445 H         1 UNK         0.2983 
    111 H111       25.7989    4.1431   -8.4669 H         1 UNK         0.0947 
    112 H112       23.6554    2.9270   -8.9175 H         1 UNK         0.0806 
    113 H113       24.0291    2.9406   -7.2003 H         1 UNK         0.0806 
    114 H114       24.3027    1.4820   -8.1495 H         1 UNK         0.0806 
    115 H115       26.9611    0.8825   -9.1609 H         1 UNK         0.3000 
    116 H116       26.8410    1.1890  -12.0769 H         1 UNK         0.0850 
    117 H117       27.8662   -1.0606  -12.0664 H         1 UNK         0.0810 
    118 H118       26.5013   -1.0366  -10.9615 H         1 UNK         0.0810 
    119 H119       28.1474   -0.9727  -10.3355 H         1 UNK         0.0810 
    120 H120       28.8576    2.4730   -9.7236 H         1 UNK         0.3040 
    121 H121       30.8234    3.4126   -9.5834 H         1 UNK         0.0766 
    122 H122       31.0065    3.3380  -12.6389 H         1 UNK         0.0812 
    123 H123       31.9075    4.3889  -11.5586 H         1 UNK         0.0812 
    124 H124       30.1692    4.5789  -11.7060 H         1 UNK         0.0812 
    125 H125       30.6518    0.4608   -9.5165 H         1 UNK         0.3205 
    126 H126       33.1734   -0.5286  -10.6403 H         1 UNK         0.0754 
    127 H127       31.2170   -1.9894  -10.6964 H         1 UNK         0.0769 
    128 H128       30.9983   -1.8651   -8.9583 H         1 UNK         0.0769 
    129 H129       32.4054   -2.6921   -9.6111 H         1 UNK         0.0769 
    130 H130       32.2482    1.0001   -7.6738 H         1 UNK         0.2981 
    131 H131       34.3879   -0.0995   -6.0563 H         1 UNK         0.0541 
    132 H132       34.5773    2.1235   -8.7044 H         1 UNK         0.3459 
    133 H133       36.1023    2.8275   -8.2301 H         1 UNK         0.3459 
    134 H134       32.7460    2.4297   -5.5752 H         1 UNK         0.0612 
    135 H135       33.8286    1.6965   -4.4192 H         1 UNK         0.0612 
    136 H136       32.7342   -0.0665   -2.4847 H         1 UNK         0.0624 
    137 H137       33.6753   -0.8300   -3.7519 H         1 UNK         0.0624 
@<TRIPOS>BOND
     1    1    2 1    
     2    1   72 1    
     3    1   73 1    
     4    1   74 1    
     5    2    3 2    
     6    2    4 am   BACKBONE|DICT|INTERRES
     7    4    5 1    
     8    4   75 1    
     9    5    6 1    
    10    5   35 1    
    11    5   76 1    
    12    6    7 1    
    13    6   77 1    
    14    6   78 1    
    15    7    8 1    
    16    8    9 1    
    17    8   79 1    
    18    8   80 1    
    19    9   10 ar   
    20    9   14 ar   
    21   10   11 ar   
    22   10   81 1    
    23   11   12 ar   
    24   11   71 1    
    25   12   13 ar   
    26   12   82 1    
    27   13   14 ar   
    28   13   15 1    
    29   14   83 1    
    30   15   16 1    
    31   15   84 1    
    32   15   85 1    
    33   16   17 1    
    34   17   18 1    
    35   17   86 1    
    36   17   87 1    
    37   18   19 1    
    38   18   37 1    
    39   18   88 1    
    40   19   20 am   BACKBONE|DICT|INTERRES
    41   19   89 1    
    42   20   21 2    
    43   20   22 1    
    44   22   23 1    
    45   22   24 1    
    46   22   90 1    
    47   23   91 1    
    48   23   92 1    
    49   23   93 1    
    50   24   25 am   BACKBONE|DICT|INTERRES
    51   24   94 1    
    52   25   26 2    
    53   25   27 1    
    54   27   28 1    
    55   27   29 1    
    56   27   95 1    
    57   28   96 1    
    58   28   97 1    
    59   28   98 1    
    60   29   30 am   BACKBONE|DICT|INTERRES
    61   29   99 1    
    62   30   31 2    
    63   30   32 1    
    64   32   33 1    
    65   32   34 1    
    66   32  100 1    
    67   33  101 1    
    68   33  102 1    
    69   33  103 1    
    70   34   35 am   BACKBONE|DICT|INTERRES
    71   34  104 1    
    72   35   36 2    
    73   37   38 2    
    74   37   39 am   BACKBONE|DICT|INTERRES
    75   39   40 1    
    76   39  105 1    
    77   40   41 1    
    78   40   42 1    
    79   40  106 1    
    80   41  107 1    
    81   41  108 1    
    82   41  109 1    
    83   42   43 2    
    84   42   44 am   BACKBONE|DICT|INTERRES
    85   44   45 1    
    86   44  110 1    
    87   45   46 1    
    88   45   47 1    
    89   45  111 1    
    90   46  112 1    
    91   46  113 1    
    92   46  114 1    
    93   47   48 2    
    94   47   49 am   BACKBONE|DICT|INTERRES
    95   49   50 1    
    96   49  115 1    
    97   50   51 1    
    98   50   52 1    
    99   50  116 1    
   100   51  117 1    
   101   51  118 1    
   102   51  119 1    
   103   52   53 2    
   104   52   54 am   BACKBONE|DICT|INTERRES
   105   54   55 1    
   106   54  120 1    
   107   55   56 1    
   108   55   57 1    
   109   55  121 1    
   110   56  122 1    
   111   56  123 1    
   112   56  124 1    
   113   57   58 2    
   114   57   59 am   BACKBONE|DICT|INTERRES
   115   59   60 1    
   116   59  125 1    
   117   60   61 1    
   118   60   62 1    
   119   60  126 1    
   120   61  127 1    
   121   61  128 1    
   122   61  129 1    
   123   62   63 2    
   124   62   64 am   BACKBONE|DICT|INTERRES
   125   64   65 1    
   126   64  130 1    
   127   65   66 1    
   128   65   69 1    
   129   65  131 1    
   130   66   67 am   BACKBONE|DICT|INTERRES
   131   66   68 2    
   132   67  132 1    
   133   67  133 1    
   134   69   70 1    
   135   69  134 1    
   136   69  135 1    
   137   70   71 1    
   138   71  136 1    
   139   71  137 1    
@<TRIPOS>SUBSTRUCTURE
     1 UNK         1 GROUP             0       ****    0 ROOT    
