@<TRIPOS>MOLECULE
3R137
137   139    1
SMALL
USER_CHARGES


@<TRIPOS>ATOM
      1 CA         30.0672    0.7074   -0.3006 C.3       0 UNK        -0.2020 
      2 C          29.3465   -0.3338   -1.1424 C.2       0 UNK         0.4855 
      3 O          28.8690   -0.0183   -2.2320 O.2       0 UNK        -0.5197 
      4 N          29.2411   -1.5697   -0.6385 N.am      1 UNK        -0.4892 
      5 CA         28.6986   -2.7502   -1.3317 C.3       1 UNK         0.0835 
      6 C6         29.2587   -4.0823   -0.7421 C.3       12 UNK        -0.0855 
      7 S7         31.0324   -4.0601   -0.2827 S.3       12 UNK        -0.2931 
      8 C8         31.8614   -4.5875   -1.8172 C.3       12 UNK         0.0378 
      9 C9         31.6865   -3.5602   -2.9243 C.ar      12 UNK        -0.0802 
     10 C10        32.2497   -2.2862   -2.7976 C.ar      12 UNK        -0.0944 
     11 C11        32.0226   -1.3080   -3.7696 C.ar      12 UNK        -0.0787 
     12 C12        31.2490   -1.6256   -4.8904 C.ar      12 UNK        -0.0862 
     13 C13        30.6854   -2.8979   -5.0297 C.ar      12 UNK        -0.0733 
     14 C14        30.9190   -3.8661   -4.0507 C.ar      12 UNK        -0.0832 
     15 C15        29.7815   -3.2171   -6.2106 C.3       12 UNK         0.0240 
     16 S16        28.0238   -3.2051   -5.7291 S.3       12 UNK        -0.2522 
     17 C17        27.7574   -1.4416   -5.3419 C.3       12 UNK        -0.0967 
     18 CA         27.0058   -0.6977   -6.4670 C.3       5 UNK         0.0660 
     19 N          25.6554   -1.2294   -6.6867 N.am      5 UNK        -0.4015 
     20 C          24.8251   -0.8380   -7.6657 C.2       4 UNK         0.4946 
     21 O          25.1095    0.0310   -8.4909 O.2       4 UNK        -0.5353 
     22 CA         23.4251   -1.4740   -7.7159 C.3       4 UNK         0.0277 
     23 CB         23.4182   -2.6666   -8.6850 C.3       4 UNK        -0.1981 
     24 N          22.9045   -1.8994   -6.4126 N.am      4 UNK        -0.4209 
     25 C          22.7196   -1.0989   -5.3531 C.2       3 UNK         0.4942 
     26 O          22.9841    0.1052   -5.3542 O.2       3 UNK        -0.5208 
     27 CA         22.1852   -1.7404   -4.0571 C.3       3 UNK         0.0250 
     28 CB         21.8929   -3.2560   -4.1608 C.3       3 UNK        -0.1990 
     29 N          23.0783   -1.4609   -2.9264 N.am      3 UNK        -0.4232 
     30 C          24.3801   -1.7747   -2.8372 C.2       2 UNK         0.4993 
     31 O          24.9918   -2.3955   -3.7094 O.2       2 UNK        -0.5286 
     32 CA         25.1069   -1.2555   -1.5813 C.3       2 UNK         0.0209 
     33 CB         24.4177   -1.7102   -0.2749 C.3       2 UNK        -0.1931 
     34 N          26.5420   -1.5701   -1.5522 N.am      2 UNK        -0.4546 
     35 C          27.1468   -2.7581   -1.3997 C.2       1 UNK         0.5154 
     36 O          26.5370   -3.8216   -1.2670 O.2       1 UNK        -0.5181 
     37 C          27.0256    0.8195   -6.1958 C.2       5 UNK         0.5014 
     38 O          28.0116    1.4690   -6.5442 O.2       5 UNK        -0.5248 
     39 N          25.9398    1.3690   -5.6284 N.am      6 UNK        -0.4434 
     40 CA         25.7772    2.8057   -5.3910 C.3       6 UNK         0.0363 
     41 CB         24.5390    3.0397   -4.5115 C.3       6 UNK        -0.1936 
     42 C          25.6855    3.6337   -6.6875 C.2       6 UNK         0.5081 
     43 O          26.0211    4.8183   -6.6631 O.2       6 UNK        -0.5248 
     44 N          25.2452    3.0056   -7.7864 N.am      7 UNK        -0.4718 
     45 CA         25.1929    3.6031   -9.1196 C.3       7 UNK         0.0273 
     46 CB         23.8606    3.2279   -9.7902 C.3       7 UNK        -0.1935 
     47 C          26.3772    3.1424   -9.9821 C.2       7 UNK         0.5018 
     48 O          26.9731    3.9669  -10.6759 O.2       7 UNK        -0.5186 
     49 N          26.6813    1.8373   -9.9463 N.am      8 UNK        -0.4240 
     50 CA         27.6732    1.1941  -10.8092 C.3       8 UNK         0.0235 
     51 CB         27.4180   -0.3224  -10.8273 C.3       8 UNK        -0.2000 
     52 C          29.1347    1.4779  -10.4278 C.2       8 UNK         0.4941 
     53 O          29.9829    1.4633  -11.3215 O.2       8 UNK        -0.5273 
     54 N          29.4132    1.6965   -9.1317 N.am      9 UNK        -0.4262 
     55 CA         30.7522    1.7673   -8.5316 C.3       9 UNK         0.0264 
     56 CB         31.5072    3.0366   -8.9900 C.3       9 UNK        -0.1955 
     57 C          31.5117    0.4423   -8.7521 C.2       9 UNK         0.5031 
     58 O          30.9756   -0.6027   -8.3831 O.2       9 UNK        -0.5390 
     59 N          32.7118    0.4986   -9.3529 N.am      10 UNK        -0.4204 
     60 CA         33.5686   -0.6386   -9.7257 C.3       10 UNK         0.0237 
     61 CB         32.9194   -1.4542  -10.8653 C.3       10 UNK        -0.1985 
     62 C          33.9697   -1.5082   -8.5169 C.2       10 UNK         0.4970 
     63 O          33.8320   -2.7325   -8.5532 O.2       10 UNK        -0.4914 
     64 N          34.4466   -0.8395   -7.4611 N.am      11 UNK        -0.4285 
     65 CA         34.7922   -1.4333   -6.1592 C.3       11 UNK         0.1007 
     66 C          36.0494   -2.3516   -6.1570 C.2       11 UNK         0.5703 
     67 N          36.8763   -2.3537   -7.1962 N.am      11 UNK        -0.7361 
     68 O          36.2777   -3.0779   -5.1927 O.2       11 UNK        -0.4986 
     69 C69        34.9050   -0.3477   -5.0552 C.3       12 UNK        -0.0947 
     70 S70        33.4585    0.7646   -4.9932 S.3       12 UNK        -0.2240 
     71 C71        32.5474    0.1080   -3.5609 C.3       12 UNK         0.0194 
     72 H72        30.4235    0.2939    0.6427 H         1 UNK         0.0906 
     73 H73        30.9262    1.0983   -0.8450 H         1 UNK         0.0906 
     74 H74        29.3983    1.5380   -0.0771 H         1 UNK         0.0906 
     75 H75        29.6416   -1.7663    0.2680 H         1 UNK         0.3140 
     76 H76        29.0291   -2.6884   -2.3701 H         1 UNK         0.1085 
     77 H77        28.7162   -4.3440    0.1687 H         1 UNK         0.0836 
     78 H78        29.0816   -4.9046   -1.4379 H         1 UNK         0.0836 
     79 H79        32.9258   -4.7197   -1.6182 H         1 UNK         0.0731 
     80 H80        31.4803   -5.5647   -2.1181 H         1 UNK         0.0731 
     81 H81        32.8257   -2.0462   -1.9143 H         1 UNK         0.1312 
     82 H82        31.0594   -0.8698   -5.6407 H         1 UNK         0.1406 
     83 H83        30.4658   -4.8434   -4.1490 H         1 UNK         0.1631 
     84 H84        30.0351   -4.2006   -6.6085 H         1 UNK         0.0717 
     85 H85        29.9359   -2.5099   -7.0248 H         1 UNK         0.0717 
     86 H86        28.7144   -0.9606   -5.1462 H         1 UNK         0.0934 
     87 H87        27.2132   -1.3707   -4.4006 H         1 UNK         0.0934 
     88 H88        27.5612   -0.8500   -7.3947 H         1 UNK         0.0739 
     89 H89        25.3412   -1.9251   -6.0213 H         1 UNK         0.3093 
     90 H90        22.7438   -0.7141   -8.1045 H         1 UNK         0.0818 
     91 H91        22.4124   -3.0650   -8.8192 H         1 UNK         0.0819 
     92 H92        23.7803   -2.3697   -9.6706 H         1 UNK         0.0819 
     93 H93        24.0584   -3.4769   -8.3337 H         1 UNK         0.0819 
     94 H94        22.6811   -2.8790   -6.3110 H         1 UNK         0.3041 
     95 H95        21.2421   -1.2367   -3.8399 H         1 UNK         0.0784 
     96 H96        21.1519   -3.4662   -4.9332 H         1 UNK         0.0793 
     97 H97        22.7880   -3.8374   -4.3858 H         1 UNK         0.0793 
     98 H98        21.4863   -3.6367   -3.2237 H         1 UNK         0.0793 
     99 H99        22.6696   -0.9117   -2.1834 H         1 UNK         0.3024 
    100 H100       25.0506   -0.1665   -1.6272 H         1 UNK         0.1171 
    101 H101       24.9762   -1.3825    0.6020 H         1 UNK         0.0786 
    102 H102       24.3214   -2.7952   -0.2227 H         1 UNK         0.0786 
    103 H103       23.4145   -1.2930   -0.1847 H         1 UNK         0.0786 
    104 H104       27.1668   -0.7866   -1.7218 H         1 UNK         0.2977 
    105 H105       25.1421    0.7810   -5.4158 H         1 UNK         0.3127 
    106 H106       26.6556    3.1534   -4.8430 H         1 UNK         0.0770 
    107 H107       23.6227    2.7283   -5.0145 H         1 UNK         0.0814 
    108 H108       24.4309    4.0969   -4.2654 H         1 UNK         0.0814 
    109 H109       24.6085    2.4934   -3.5708 H         1 UNK         0.0814 
    110 H110       25.0205    2.0195   -7.7244 H         1 UNK         0.2983 
    111 H111       25.2373    4.6924   -9.0494 H         1 UNK         0.0947 
    112 H112       23.7936    3.6557  -10.7914 H         1 UNK         0.0806 
    113 H113       23.0120    3.6054   -9.2196 H         1 UNK         0.0806 
    114 H114       23.7431    2.1476   -9.8876 H         1 UNK         0.0806 
    115 H115       26.1142    1.2155   -9.3712 H         1 UNK         0.3000 
    116 H116       27.5254    1.5699  -11.8242 H         1 UNK         0.0850 
    117 H117       28.1076   -0.8267  -11.5058 H         1 UNK         0.0810 
    118 H118       26.4064   -0.5519  -11.1628 H         1 UNK         0.0810 
    119 H119       27.5515   -0.7655   -9.8400 H         1 UNK         0.0810 
    120 H120       28.6549    1.6606   -8.4577 H         1 UNK         0.3040 
    121 H121       30.6000    1.8487   -7.4542 H         1 UNK         0.0766 
    122 H122       32.4520    3.1481   -8.4566 H         1 UNK         0.0812 
    123 H123       31.7230    3.0321  -10.0588 H         1 UNK         0.0812 
    124 H124       30.9203    3.9312   -8.7808 H         1 UNK         0.0812 
    125 H125       33.0536    1.4111   -9.6201 H         1 UNK         0.3205 
    126 H126       34.4948   -0.2137  -10.1157 H         1 UNK         0.0754 
    127 H127       33.5947   -2.2317  -11.2247 H         1 UNK         0.0769 
    128 H128       32.6736   -0.8190  -11.7165 H         1 UNK         0.0769 
    129 H129       32.0014   -1.9451  -10.5400 H         1 UNK         0.0769 
    130 H130       34.5179    0.1653   -7.5136 H         1 UNK         0.2981 
    131 H131       33.9600   -2.0851   -5.8876 H         1 UNK         0.0541 
    132 H132       36.6973   -1.7643   -7.9928 H         1 UNK         0.3459 
    133 H133       37.6849   -2.9551   -7.1828 H         1 UNK         0.3459 
    134 H134       35.7885    0.2706   -5.2237 H         1 UNK         0.0612 
    135 H135       35.0413   -0.8093   -4.0754 H         1 UNK         0.0612 
    136 H136       33.1895    0.1624   -2.6805 H         1 UNK         0.0624 
    137 H137       31.6978    0.7628   -3.3628 H         1 UNK         0.0624 
@<TRIPOS>BOND
     1    1    2 1    
     2    1   72 1    
     3    1   73 1    
     4    1   74 1    
     5    2    3 2    
     6    2    4 am   BACKBONE|DICT|INTERRES
     7    4    5 1    
     8    4   75 1    
     9    5    6 1    
    10    5   35 1    
    11    5   76 1    
    12    6    7 1    
    13    6   77 1    
    14    6   78 1    
    15    7    8 1    
    16    8    9 1    
    17    8   79 1    
    18    8   80 1    
    19    9   10 ar   
    20    9   14 ar   
    21   10   11 ar   
    22   10   81 1    
    23   11   12 ar   
    24   11   71 1    
    25   12   13 ar   
    26   12   82 1    
    27   13   14 ar   
    28   13   15 1    
    29   14   83 1    
    30   15   16 1    
    31   15   84 1    
    32   15   85 1    
    33   16   17 1    
    34   17   18 1    
    35   17   86 1    
    36   17   87 1    
    37   18   19 1    
    38   18   37 1    
    39   18   88 1    
    40   19   20 am   BACKBONE|DICT|INTERRES
    41   19   89 1    
    42   20   21 2    
    43   20   22 1    
    44   22   23 1    
    45   22   24 1    
    46   22   90 1    
    47   23   91 1    
    48   23   92 1    
    49   23   93 1    
    50   24   25 am   BACKBONE|DICT|INTERRES
    51   24   94 1    
    52   25   26 2    
    53   25   27 1    
    54   27   28 1    
    55   27   29 1    
    56   27   95 1    
    57   28   96 1    
    58   28   97 1    
    59   28   98 1    
    60   29   30 am   BACKBONE|DICT|INTERRES
    61   29   99 1    
    62   30   31 2    
    63   30   32 1    
    64   32   33 1    
    65   32   34 1    
    66   32  100 1    
    67   33  101 1    
    68   33  102 1    
    69   33  103 1    
    70   34   35 am   BACKBONE|DICT|INTERRES
    71   34  104 1    
    72   35   36 2    
    73   37   38 2    
    74   37   39 am   BACKBONE|DICT|INTERRES
    75   39   40 1    
    76   39  105 1    
    77   40   41 1    
    78   40   42 1    
    79   40  106 1    
    80   41  107 1    
    81   41  108 1    
    82   41  109 1    
    83   42   43 2    
    84   42   44 am   BACKBONE|DICT|INTERRES
    85   44   45 1    
    86   44  110 1    
    87   45   46 1    
    88   45   47 1    
    89   45  111 1    
    90   46  112 1    
    91   46  113 1    
    92   46  114 1    
    93   47   48 2    
    94   47   49 am   BACKBONE|DICT|INTERRES
    95   49   50 1    
    96   49  115 1    
    97   50   51 1    
    98   50   52 1    
    99   50  116 1    
   100   51  117 1    
   101   51  118 1    
   102   51  119 1    
   103   52   53 2    
   104   52   54 am   BACKBONE|DICT|INTERRES
   105   54   55 1    
   106   54  120 1    
   107   55   56 1    
   108   55   57 1    
   109   55  121 1    
   110   56  122 1    
   111   56  123 1    
   112   56  124 1    
   113   57   58 2    
   114   57   59 am   BACKBONE|DICT|INTERRES
   115   59   60 1    
   116   59  125 1    
   117   60   61 1    
   118   60   62 1    
   119   60  126 1    
   120   61  127 1    
   121   61  128 1    
   122   61  129 1    
   123   62   63 2    
   124   62   64 am   BACKBONE|DICT|INTERRES
   125   64   65 1    
   126   64  130 1    
   127   65   66 1    
   128   65   69 1    
   129   65  131 1    
   130   66   67 am   BACKBONE|DICT|INTERRES
   131   66   68 2    
   132   67  132 1    
   133   67  133 1    
   134   69   70 1    
   135   69  134 1    
   136   69  135 1    
   137   70   71 1    
   138   71  136 1    
   139   71  137 1    
@<TRIPOS>SUBSTRUCTURE
     1 UNK         1 GROUP             0       ****    0 ROOT    
