@<TRIPOS>MOLECULE
3R137
137   139    1
SMALL
USER_CHARGES


@<TRIPOS>ATOM
      1 CA         25.6679   -6.7879   -0.3318 C.3       0 UNK        -0.2020 
      2 C          26.2940   -5.4138   -0.5132 C.2       0 UNK         0.4855 
      3 O          26.1631   -4.5587    0.3632 O.2       0 UNK        -0.5197 
      4 N          26.9631   -5.1846   -1.6498 N.am      1 UNK        -0.4892 
      5 CA         27.6635   -3.9432   -2.0057 C.3       1 UNK         0.0835 
      6 C6         28.7507   -4.1964   -3.0857 C.3       12 UNK        -0.0855 
      7 S7         30.1597   -5.2008   -2.5000 S.3       12 UNK        -0.2931 
      8 C8         31.2153   -3.9962   -1.6121 C.3       12 UNK         0.0378 
      9 C9         31.3624   -2.6621   -2.3355 C.ar      12 UNK        -0.0802 
     10 C10        32.1506   -2.5517   -3.4852 C.ar      12 UNK        -0.0944 
     11 C11        32.2460   -1.3317   -4.1654 C.ar      12 UNK        -0.0787 
     12 C12        31.5294   -0.2242   -3.7007 C.ar      12 UNK        -0.0862 
     13 C13        30.7360   -0.3227   -2.5546 C.ar      12 UNK        -0.0733 
     14 C14        30.6774   -1.5382   -1.8649 C.ar      12 UNK        -0.0832 
     15 C15        29.9308    0.8750   -2.0667 C.3       12 UNK         0.0240 
     16 S16        28.1661    0.4524   -1.9256 S.3       12 UNK        -0.2522 
     17 C17        27.3352    1.7678   -2.8664 C.3       12 UNK        -0.0967 
     18 CA         27.4582    1.6664   -4.4117 C.3       5 UNK         0.0660 
     19 N          27.2261    0.3243   -4.9654 N.am      5 UNK        -0.4015 
     20 C          27.3867    0.0061   -6.2617 C.2       4 UNK         0.4946 
     21 O          27.8326    0.7810   -7.1061 O.2       4 UNK        -0.5353 
     22 CA         26.9205   -1.3806   -6.7254 C.3       4 UNK         0.0277 
     23 CB         28.0513   -2.4135   -6.5988 C.3       4 UNK        -0.1981 
     24 N          25.7337   -1.8251   -5.9959 N.am      4 UNK        -0.4209 
     25 C          24.5000   -1.3411   -6.1963 C.2       3 UNK         0.4942 
     26 O          24.2262   -0.5089   -7.0608 O.2       3 UNK        -0.5208 
     27 CA         23.3909   -1.8384   -5.2520 C.3       3 UNK         0.0250 
     28 CB         22.8023   -3.1638   -5.7606 C.3       3 UNK        -0.1990 
     29 N          23.8403   -2.0001   -3.8662 N.am      3 UNK        -0.4232 
     30 C          24.2371   -0.9898   -3.0800 C.2       2 UNK         0.4993 
     31 O          24.2359    0.1910   -3.4325 O.2       2 UNK        -0.5286 
     32 CA         24.7713   -1.3604   -1.6833 C.3       2 UNK         0.0209 
     33 CB         23.6069   -1.5536   -0.6990 C.3       2 UNK        -0.1931 
     34 N          25.6656   -2.5292   -1.6127 N.am      2 UNK        -0.4546 
     35 C          26.6972   -2.8073   -2.4237 C.2       1 UNK         0.5154 
     36 O          26.9048   -2.1961   -3.4700 O.2       1 UNK        -0.5181 
     37 C          26.5226    2.7035   -5.0645 C.2       5 UNK         0.5014 
     38 O          26.9904    3.7586   -5.4938 O.2       5 UNK        -0.5248 
     39 N          25.2246    2.3689   -5.1416 N.am      6 UNK        -0.4434 
     40 CA         24.1823    3.1866   -5.7662 C.3       6 UNK         0.0363 
     41 CB         22.8047    2.5699   -5.4755 C.3       6 UNK        -0.1936 
     42 C          24.3856    3.3751   -7.2792 C.2       6 UNK         0.5081 
     43 O          24.2013    4.4851   -7.7791 O.2       6 UNK        -0.5248 
     44 N          24.7723    2.2992   -7.9786 N.am      7 UNK        -0.4718 
     45 CA         25.0669    2.3109   -9.4150 C.3       7 UNK         0.0273 
     46 CB         25.0453    0.8660   -9.9399 C.3       7 UNK        -0.1935 
     47 C          26.4079    2.9789   -9.7731 C.2       7 UNK         0.5018 
     48 O          26.5923    3.3450  -10.9345 O.2       7 UNK        -0.5186 
     49 N          27.3179    3.0893   -8.7925 N.am      8 UNK        -0.4240 
     50 CA         28.7325    3.4637   -8.9186 C.3       8 UNK         0.0235 
     51 CB         28.8902    4.9289   -9.3782 C.3       8 UNK        -0.2000 
     52 C          29.4977    2.4538   -9.7979 C.2       8 UNK         0.4941 
     53 O          30.2118    2.8464  -10.7233 O.2       8 UNK        -0.5273 
     54 N          29.2913    1.1652   -9.5045 N.am      9 UNK        -0.4262 
     55 CA         29.8112    0.0203  -10.2479 C.3       9 UNK         0.0264 
     56 CB         28.6236   -0.8879  -10.6148 C.3       9 UNK        -0.1955 
     57 C          30.8403   -0.7541   -9.4111 C.2       9 UNK         0.5031 
     58 O          30.9257   -0.5593   -8.1959 O.2       9 UNK        -0.5390 
     59 N          31.5749   -1.6471  -10.0915 N.am      10 UNK        -0.4204 
     60 CA         32.6225   -2.5316   -9.5632 C.3       10 UNK         0.0237 
     61 CB         32.0185   -3.5685   -8.5864 C.3       10 UNK        -0.1985 
     62 C          33.8373   -1.7596   -9.0016 C.2       10 UNK         0.4970 
     63 O          34.0313   -0.5932   -9.3525 O.2       10 UNK        -0.4914 
     64 N          34.6653   -2.4385   -8.1928 N.am      11 UNK        -0.4285 
     65 CA         35.9131   -1.9196   -7.5960 C.3       11 UNK         0.1007 
     66 C          37.0314   -1.5711   -8.6304 C.2       11 UNK         0.5703 
     67 N          36.9867   -2.0928   -9.8511 N.am      11 UNK        -0.7361 
     68 O          37.9772   -0.8507   -8.3184 O.2       11 UNK        -0.4986 
     69 C69        35.6575   -0.7826   -6.5600 C.3       12 UNK        -0.0947 
     70 S70        34.8722   -1.3791   -5.0264 S.3       12 UNK        -0.2240 
     71 C71        33.1041   -1.2114   -5.4154 C.3       12 UNK         0.0194 
     72 H72        24.5887   -6.6957   -0.2123 H         1 UNK         0.0906 
     73 H73        25.8608   -7.4404   -1.1832 H         1 UNK         0.0906 
     74 H74        26.0697   -7.2675    0.5604 H         1 UNK         0.0906 
     75 H75        27.0284   -5.9233   -2.3362 H         1 UNK         0.3140 
     76 H76        28.1710   -3.5734   -1.1122 H         1 UNK         0.1085 
     77 H77        29.1457   -3.2634   -3.4859 H         1 UNK         0.0836 
     78 H78        28.3093   -4.7022   -3.9461 H         1 UNK         0.0836 
     79 H79        32.2024   -4.4364   -1.4635 H         1 UNK         0.0731 
     80 H80        30.8025   -3.8434   -0.6137 H         1 UNK         0.0731 
     81 H81        32.6845   -3.4166   -3.8550 H         1 UNK         0.1312 
     82 H82        31.5847    0.7134   -4.2369 H         1 UNK         0.1406 
     83 H83        30.0621   -1.6151   -0.9788 H         1 UNK         0.1631 
     84 H84        30.0594    1.7277   -2.7346 H         1 UNK         0.0717 
     85 H85        30.3027    1.1863   -1.0899 H         1 UNK         0.0717 
     86 H86        26.2870    1.7413   -2.5622 H         1 UNK         0.0934 
     87 H87        27.7155    2.7312   -2.5210 H         1 UNK         0.0934 
     88 H88        28.4813    1.9366   -4.6811 H         1 UNK         0.0739 
     89 H89        26.9280   -0.3994   -4.3180 H         1 UNK         0.3093 
     90 H90        26.6548   -1.3068   -7.7813 H         1 UNK         0.0818 
     91 H91        27.7225   -3.4073   -6.9019 H         1 UNK         0.0819 
     92 H92        28.8940   -2.1418   -7.2353 H         1 UNK         0.0819 
     93 H93        28.4314   -2.4775   -5.5805 H         1 UNK         0.0819 
     94 H94        25.9050   -2.3993   -5.1778 H         1 UNK         0.3041 
     95 H95        22.5965   -1.0888   -5.2584 H         1 UNK         0.0784 
     96 H96        22.4425   -3.0618   -6.7856 H         1 UNK         0.0793 
     97 H97        23.5420   -3.9655   -5.7531 H         1 UNK         0.0793 
     98 H98        21.9553   -3.4814   -5.1521 H         1 UNK         0.0793 
     99 H99        23.8900   -2.9400   -3.5008 H         1 UNK         0.3024 
    100 H100       25.3562   -0.5044   -1.3420 H         1 UNK         0.1171 
    101 H101       23.9668   -1.6644    0.3241 H         1 UNK         0.0786 
    102 H102       22.9349   -0.6940   -0.7123 H         1 UNK         0.0786 
    103 H103       23.0145   -2.4363   -0.9430 H         1 UNK         0.0786 
    104 H104       25.5898   -3.1076   -0.7802 H         1 UNK         0.2977 
    105 H105       24.9204    1.4999   -4.7080 H         1 UNK         0.3127 
    106 H106       24.2172    4.1749   -5.3030 H         1 UNK         0.0770 
    107 H107       22.7166    1.5648   -5.8897 H         1 UNK         0.0814 
    108 H108       22.0067    3.1739   -5.9093 H         1 UNK         0.0814 
    109 H109       22.6175    2.5056   -4.4034 H         1 UNK         0.0814 
    110 H110       24.8291    1.4011   -7.5077 H         1 UNK         0.2983 
    111 H111       24.2788    2.8709   -9.9232 H         1 UNK         0.0947 
    112 H112       25.8127    0.2557   -9.4630 H         1 UNK         0.0806 
    113 H113       25.2258    0.8356  -11.0153 H         1 UNK         0.0806 
    114 H114       24.0803    0.3918   -9.7597 H         1 UNK         0.0806 
    115 H115       27.0650    2.6987   -7.8925 H         1 UNK         0.3000 
    116 H116       29.1578    3.3834   -7.9168 H         1 UNK         0.0850 
    117 H117       28.3401    5.6083   -8.7272 H         1 UNK         0.0810 
    118 H118       28.5342    5.0783  -10.3978 H         1 UNK         0.0810 
    119 H119       29.9375    5.2320   -9.3539 H         1 UNK         0.0810 
    120 H120       28.7692    0.9453   -8.6560 H         1 UNK         0.3040 
    121 H121       30.2978    0.3546  -11.1667 H         1 UNK         0.0766 
    122 H122       28.9433   -1.7377  -11.2188 H         1 UNK         0.0812 
    123 H123       27.8760   -0.3452  -11.1939 H         1 UNK         0.0812 
    124 H124       28.1328   -1.2861   -9.7264 H         1 UNK         0.0812 
    125 H125       31.4395   -1.6980  -11.0917 H         1 UNK         0.3205 
    126 H126       33.0042   -3.0831  -10.4237 H         1 UNK         0.0754 
    127 H127       32.7491   -4.3169   -8.2792 H         1 UNK         0.0769 
    128 H128       31.1981   -4.1102   -9.0574 H         1 UNK         0.0769 
    129 H129       31.6204   -3.1028   -7.6856 H         1 UNK         0.0769 
    130 H130       34.4515   -3.4015   -7.9798 H         1 UNK         0.2981 
    131 H131       36.3363   -2.7606   -7.0457 H         1 UNK         0.0541 
    132 H132       37.7193   -1.8727  -10.5073 H         1 UNK         0.3459 
    133 H133       36.2316   -2.7011  -10.1223 H         1 UNK         0.3459 
    134 H134       36.5976   -0.3279   -6.2446 H         1 UNK         0.0612 
    135 H135       35.0710    0.0295   -6.9910 H         1 UNK         0.0612 
    136 H136       32.8170   -1.9909   -6.1177 H         1 UNK         0.0624 
    137 H137       32.9263   -0.2589   -5.9173 H         1 UNK         0.0624 
@<TRIPOS>BOND
     1    1    2 1    
     2    1   72 1    
     3    1   73 1    
     4    1   74 1    
     5    2    3 2    
     6    2    4 am   BACKBONE|DICT|INTERRES
     7    4    5 1    
     8    4   75 1    
     9    5    6 1    
    10    5   35 1    
    11    5   76 1    
    12    6    7 1    
    13    6   77 1    
    14    6   78 1    
    15    7    8 1    
    16    8    9 1    
    17    8   79 1    
    18    8   80 1    
    19    9   10 ar   
    20    9   14 ar   
    21   10   11 ar   
    22   10   81 1    
    23   11   12 ar   
    24   11   71 1    
    25   12   13 ar   
    26   12   82 1    
    27   13   14 ar   
    28   13   15 1    
    29   14   83 1    
    30   15   16 1    
    31   15   84 1    
    32   15   85 1    
    33   16   17 1    
    34   17   18 1    
    35   17   86 1    
    36   17   87 1    
    37   18   19 1    
    38   18   37 1    
    39   18   88 1    
    40   19   20 am   BACKBONE|DICT|INTERRES
    41   19   89 1    
    42   20   21 2    
    43   20   22 1    
    44   22   23 1    
    45   22   24 1    
    46   22   90 1    
    47   23   91 1    
    48   23   92 1    
    49   23   93 1    
    50   24   25 am   BACKBONE|DICT|INTERRES
    51   24   94 1    
    52   25   26 2    
    53   25   27 1    
    54   27   28 1    
    55   27   29 1    
    56   27   95 1    
    57   28   96 1    
    58   28   97 1    
    59   28   98 1    
    60   29   30 am   BACKBONE|DICT|INTERRES
    61   29   99 1    
    62   30   31 2    
    63   30   32 1    
    64   32   33 1    
    65   32   34 1    
    66   32  100 1    
    67   33  101 1    
    68   33  102 1    
    69   33  103 1    
    70   34   35 am   BACKBONE|DICT|INTERRES
    71   34  104 1    
    72   35   36 2    
    73   37   38 2    
    74   37   39 am   BACKBONE|DICT|INTERRES
    75   39   40 1    
    76   39  105 1    
    77   40   41 1    
    78   40   42 1    
    79   40  106 1    
    80   41  107 1    
    81   41  108 1    
    82   41  109 1    
    83   42   43 2    
    84   42   44 am   BACKBONE|DICT|INTERRES
    85   44   45 1    
    86   44  110 1    
    87   45   46 1    
    88   45   47 1    
    89   45  111 1    
    90   46  112 1    
    91   46  113 1    
    92   46  114 1    
    93   47   48 2    
    94   47   49 am   BACKBONE|DICT|INTERRES
    95   49   50 1    
    96   49  115 1    
    97   50   51 1    
    98   50   52 1    
    99   50  116 1    
   100   51  117 1    
   101   51  118 1    
   102   51  119 1    
   103   52   53 2    
   104   52   54 am   BACKBONE|DICT|INTERRES
   105   54   55 1    
   106   54  120 1    
   107   55   56 1    
   108   55   57 1    
   109   55  121 1    
   110   56  122 1    
   111   56  123 1    
   112   56  124 1    
   113   57   58 2    
   114   57   59 am   BACKBONE|DICT|INTERRES
   115   59   60 1    
   116   59  125 1    
   117   60   61 1    
   118   60   62 1    
   119   60  126 1    
   120   61  127 1    
   121   61  128 1    
   122   61  129 1    
   123   62   63 2    
   124   62   64 am   BACKBONE|DICT|INTERRES
   125   64   65 1    
   126   64  130 1    
   127   65   66 1    
   128   65   69 1    
   129   65  131 1    
   130   66   67 am   BACKBONE|DICT|INTERRES
   131   66   68 2    
   132   67  132 1    
   133   67  133 1    
   134   69   70 1    
   135   69  134 1    
   136   69  135 1    
   137   70   71 1    
   138   71  136 1    
   139   71  137 1    
@<TRIPOS>SUBSTRUCTURE
     1 UNK         1 GROUP             0       ****    0 ROOT    
