@<TRIPOS>MOLECULE
3R137
137   139    1
SMALL
USER_CHARGES


@<TRIPOS>ATOM
      1 CA         25.7155   -5.5900   -3.5535 C.3       0 UNK        -0.2020 
      2 C          26.0657   -5.1071   -2.1548 C.2       0 UNK         0.4855 
      3 O          25.1694   -4.9165   -1.3339 O.2       0 UNK        -0.5197 
      4 N          27.3624   -4.9361   -1.8687 N.am      1 UNK        -0.4892 
      5 CA         27.8892   -4.5984   -0.5403 C.3       1 UNK         0.0835 
      6 C6         29.3962   -4.9538   -0.3477 C.3       12 UNK        -0.0855 
      7 S7         29.9941   -6.3318   -1.3966 S.3       12 UNK        -0.2931 
      8 C8         31.2105   -5.5127   -2.4866 C.3       12 UNK         0.0378 
      9 C9         30.6743   -4.2534   -3.1616 C.ar      12 UNK        -0.0802 
     10 C10        31.1259   -2.9969   -2.7454 C.ar      12 UNK        -0.0944 
     11 C11        30.6638   -1.8311   -3.3608 C.ar      12 UNK        -0.0787 
     12 C12        29.7412   -1.9255   -4.4058 C.ar      12 UNK        -0.0862 
     13 C13        29.2872   -3.1758   -4.8382 C.ar      12 UNK        -0.0733 
     14 C14        29.7574   -4.3377   -4.2149 C.ar      12 UNK        -0.0832 
     15 C15        28.3231   -3.2635   -6.0094 C.3       12 UNK         0.0240 
     16 S16        26.6177   -2.8635   -5.5175 S.3       12 UNK        -0.2522 
     17 C17        25.8287   -2.7745   -7.1684 C.3       12 UNK        -0.0967 
     18 CA         25.4956   -1.3336   -7.6349 C.3       5 UNK         0.0660 
     19 N          24.4738   -0.7187   -6.7843 N.am      5 UNK        -0.4015 
     20 C          23.9497    0.5088   -6.9197 C.2       4 UNK         0.4946 
     21 O          24.1737    1.2447   -7.8816 O.2       4 UNK        -0.5353 
     22 CA         23.0781    1.0337   -5.7589 C.3       4 UNK         0.0277 
     23 CB         21.5946    1.0322   -6.1618 C.3       4 UNK        -0.1981 
     24 N          23.2326    0.3111   -4.4859 N.am      4 UNK        -0.4209 
     25 C          24.3826    0.1272   -3.8190 C.2       3 UNK         0.4942 
     26 O          25.4675    0.5677   -4.2109 O.2       3 UNK        -0.5208 
     27 CA         24.3060   -0.7470   -2.5519 C.3       3 UNK         0.0250 
     28 CB         23.5411   -2.0606   -2.8064 C.3       3 UNK        -0.1990 
     29 N          25.6501   -1.0856   -2.0899 N.am      3 UNK        -0.4232 
     30 C          26.3962   -0.3419   -1.2652 C.2       2 UNK         0.4993 
     31 O          25.9796    0.6492   -0.6618 O.2       2 UNK        -0.5286 
     32 CA         27.8653   -0.7790   -1.1247 C.3       2 UNK         0.0209 
     33 CB         28.5916   -0.1349    0.0758 C.3       2 UNK        -0.1931 
     34 N          28.0320   -2.2389   -1.1400 N.am      2 UNK        -0.4546 
     35 C          27.6225   -3.1180   -0.2107 C.2       1 UNK         0.5154 
     36 O          27.0565   -2.8149    0.8404 O.2       1 UNK        -0.5181 
     37 C          26.7752   -0.4781   -7.7783 C.2       5 UNK         0.5014 
     38 O          27.4287   -0.5573   -8.8176 O.2       5 UNK        -0.5248 
     39 N          27.0933    0.3432   -6.7616 N.am      6 UNK        -0.4434 
     40 CA         28.2222    1.2791   -6.7355 C.3       6 UNK         0.0363 
     41 CB         28.2573    1.9902   -5.3734 C.3       6 UNK        -0.1936 
     42 C          28.2283    2.3073   -7.8833 C.2       6 UNK         0.5081 
     43 O          29.2912    2.8324   -8.2070 O.2       6 UNK        -0.5248 
     44 N          27.0674    2.5540   -8.5080 N.am      7 UNK        -0.4718 
     45 CA         26.9343    3.3731   -9.7153 C.3       7 UNK         0.0273 
     46 CB         25.4456    3.6779   -9.9482 C.3       7 UNK        -0.1935 
     47 C          27.5564    2.7368  -10.9764 C.2       7 UNK         0.5018 
     48 O          27.7742    3.4563  -11.9524 O.2       7 UNK        -0.5186 
     49 N          27.8229    1.4231  -10.9541 N.am      8 UNK        -0.4240 
     50 CA         28.3966    0.6618  -12.0633 C.3       8 UNK         0.0235 
     51 CB         27.2608    0.0624  -12.9161 C.3       8 UNK        -0.2000 
     52 C          29.3793   -0.3961  -11.5337 C.2       8 UNK         0.4941 
     53 O          29.3458   -1.5453  -11.9791 O.2       8 UNK        -0.5273 
     54 N          30.2394    0.0055  -10.5910 N.am      9 UNK        -0.4262 
     55 CA         31.2674   -0.8278   -9.9713 C.3       9 UNK         0.0264 
     56 CB         30.6715   -1.5760   -8.7625 C.3       9 UNK        -0.1955 
     57 C          32.4511    0.0575   -9.5624 C.2       9 UNK         0.5031 
     58 O          32.3656    1.2849   -9.6635 O.2       9 UNK        -0.5390 
     59 N          33.5280   -0.5790   -9.0792 N.am      10 UNK        -0.4204 
     60 CA         34.7778    0.0579   -8.6372 C.3       10 UNK         0.0237 
     61 CB         35.7807   -1.0335   -8.2274 C.3       10 UNK        -0.1985 
     62 C          34.6193    1.0919   -7.5043 C.2       10 UNK         0.4970 
     63 O          35.4757    1.9666   -7.3682 O.2       10 UNK        -0.4914 
     64 N          33.5297    0.9879   -6.7337 N.am      11 UNK        -0.4285 
     65 CA         33.0958    1.9822   -5.7420 C.3       11 UNK         0.1007 
     66 C          32.6198    3.3378   -6.3464 C.2       11 UNK         0.5703 
     67 N          32.3927    3.4546   -7.6493 N.am      11 UNK        -0.7361 
     68 O          32.4671    4.3110   -5.6118 O.2       11 UNK        -0.4986 
     69 C69        32.0214    1.3926   -4.7929 C.3       12 UNK        -0.0947 
     70 S70        32.6676    0.0205   -3.7849 S.3       12 UNK        -0.2240 
     71 C71        31.1679   -0.4770   -2.8869 C.3       12 UNK         0.0194 
     72 H72        25.2828   -6.5888   -3.5060 H         1 UNK         0.0906 
     73 H73        24.9825   -4.9259   -4.0099 H         1 UNK         0.0906 
     74 H74        26.5899   -5.6303   -4.2026 H         1 UNK         0.0906 
     75 H75        28.0657   -5.1365   -2.5656 H         1 UNK         0.3140 
     76 H76        27.3254   -5.1930    0.1829 H         1 UNK         0.1085 
     77 H77        30.0439   -4.0904   -0.5002 H         1 UNK         0.0836 
     78 H78        29.5639   -5.2350    0.6934 H         1 UNK         0.0836 
     79 H79        31.5309   -6.2219   -3.2512 H         1 UNK         0.0731 
     80 H80        32.1016   -5.2812   -1.9008 H         1 UNK         0.0731 
     81 H81        31.8454   -2.9234   -1.9410 H         1 UNK         0.1312 
     82 H82        29.3837   -1.0286   -4.8923 H         1 UNK         0.1406 
     83 H83        29.4235   -5.3082   -4.5573 H         1 UNK         0.1631 
     84 H84        28.6488   -2.5750   -6.7896 H         1 UNK         0.0717 
     85 H85        28.3442   -4.2608   -6.4517 H         1 UNK         0.0717 
     86 H86        26.4619   -3.2689   -7.9079 H         1 UNK         0.0934 
     87 H87        24.9150   -3.3701   -7.1362 H         1 UNK         0.0934 
     88 H88        25.0586   -1.4014   -8.6333 H         1 UNK         0.0739 
     89 H89        24.2394   -1.2344   -5.9500 H         1 UNK         0.3093 
     90 H90        23.3837    2.0668   -5.5810 H         1 UNK         0.0818 
     91 H91        20.9741    1.5041   -5.3997 H         1 UNK         0.0819 
     92 H92        21.4406    1.5873   -7.0886 H         1 UNK         0.0819 
     93 H93        21.2206    0.0203   -6.3229 H         1 UNK         0.0819 
     94 H94        22.3887   -0.0850   -4.0970 H         1 UNK         0.3041 
     95 H95        23.7835   -0.1787   -1.7796 H         1 UNK         0.0784 
     96 H96        23.9683   -2.6249   -3.6363 H         1 UNK         0.0793 
     97 H97        23.5627   -2.7029   -1.9256 H         1 UNK         0.0793 
     98 H98        22.4903   -1.8807   -3.0348 H         1 UNK         0.0793 
     99 H99        26.0970   -1.8594   -2.5588 H         1 UNK         0.3024 
    100 H100       28.3496   -0.4109   -2.0288 H         1 UNK         0.1171 
    101 H101       28.5991    0.9522   -0.0118 H         1 UNK         0.0786 
    102 H102       29.6298   -0.4614    0.1337 H         1 UNK         0.0786 
    103 H103       28.1088   -0.3785    1.0224 H         1 UNK         0.0786 
    104 H104       28.4829   -2.6162   -1.9633 H         1 UNK         0.2977 
    105 H105       26.4975    0.3419   -5.9376 H         1 UNK         0.3127 
    106 H106       29.1339    0.6899   -6.8334 H         1 UNK         0.0770 
    107 H107       29.1026    2.6772   -5.3108 H         1 UNK         0.0814 
    108 H108       28.3552    1.2787   -4.5535 H         1 UNK         0.0814 
    109 H109       27.3504    2.5717   -5.2023 H         1 UNK         0.0814 
    110 H110       26.2311    2.0770   -8.1899 H         1 UNK         0.2983 
    111 H111       27.4545    4.3175   -9.5414 H         1 UNK         0.0947 
    112 H112       25.3097    4.3314  -10.8111 H         1 UNK         0.0806 
    113 H113       25.0029    4.1809   -9.0883 H         1 UNK         0.0806 
    114 H114       24.8736    2.7680  -10.1348 H         1 UNK         0.0806 
    115 H115       27.6407    0.8879  -10.1073 H         1 UNK         0.3000 
    116 H116       28.9864    1.3261  -12.6985 H         1 UNK         0.0850 
    117 H117       27.6579   -0.4842  -13.7724 H         1 UNK         0.0810 
    118 H118       26.6048    0.8404  -13.3069 H         1 UNK         0.0810 
    119 H119       26.6507   -0.6315  -12.3365 H         1 UNK         0.0810 
    120 H120       30.2650    0.9793  -10.3111 H         1 UNK         0.3040 
    121 H121       31.6349   -1.5512  -10.7023 H         1 UNK         0.0766 
    122 H122       30.3485   -0.8868   -7.9836 H         1 UNK         0.0812 
    123 H123       31.3924   -2.2612   -8.3160 H         1 UNK         0.0812 
    124 H124       29.8062   -2.1708   -9.0561 H         1 UNK         0.0812 
    125 H125       33.5054   -1.5880   -9.0332 H         1 UNK         0.3205 
    126 H126       35.1874    0.5923   -9.4969 H         1 UNK         0.0754 
    127 H127       36.7327   -0.5959   -7.9228 H         1 UNK         0.0769 
    128 H128       35.9906   -1.7127   -9.0541 H         1 UNK         0.0769 
    129 H129       35.4119   -1.6259   -7.3889 H         1 UNK         0.0769 
    130 H130       32.8916    0.2273   -6.9052 H         1 UNK         0.2981 
    131 H131       33.9695    2.2288   -5.1357 H         1 UNK         0.0541 
    132 H132       32.0675    4.3358   -8.0110 H         1 UNK         0.3459 
    133 H133       32.4644    2.6562   -8.2720 H         1 UNK         0.3459 
    134 H134       31.1600    1.0405   -5.3624 H         1 UNK         0.0612 
    135 H135       31.6504    2.1555   -4.1054 H         1 UNK         0.0612 
    136 H136       31.3962   -0.5171   -1.8209 H         1 UNK         0.0624 
    137 H137       30.3916    0.2805   -3.0006 H         1 UNK         0.0624 
@<TRIPOS>BOND
     1    1    2 1    
     2    1   72 1    
     3    1   73 1    
     4    1   74 1    
     5    2    3 2    
     6    2    4 am   BACKBONE|DICT|INTERRES
     7    4    5 1    
     8    4   75 1    
     9    5    6 1    
    10    5   35 1    
    11    5   76 1    
    12    6    7 1    
    13    6   77 1    
    14    6   78 1    
    15    7    8 1    
    16    8    9 1    
    17    8   79 1    
    18    8   80 1    
    19    9   10 ar   
    20    9   14 ar   
    21   10   11 ar   
    22   10   81 1    
    23   11   12 ar   
    24   11   71 1    
    25   12   13 ar   
    26   12   82 1    
    27   13   14 ar   
    28   13   15 1    
    29   14   83 1    
    30   15   16 1    
    31   15   84 1    
    32   15   85 1    
    33   16   17 1    
    34   17   18 1    
    35   17   86 1    
    36   17   87 1    
    37   18   19 1    
    38   18   37 1    
    39   18   88 1    
    40   19   20 am   BACKBONE|DICT|INTERRES
    41   19   89 1    
    42   20   21 2    
    43   20   22 1    
    44   22   23 1    
    45   22   24 1    
    46   22   90 1    
    47   23   91 1    
    48   23   92 1    
    49   23   93 1    
    50   24   25 am   BACKBONE|DICT|INTERRES
    51   24   94 1    
    52   25   26 2    
    53   25   27 1    
    54   27   28 1    
    55   27   29 1    
    56   27   95 1    
    57   28   96 1    
    58   28   97 1    
    59   28   98 1    
    60   29   30 am   BACKBONE|DICT|INTERRES
    61   29   99 1    
    62   30   31 2    
    63   30   32 1    
    64   32   33 1    
    65   32   34 1    
    66   32  100 1    
    67   33  101 1    
    68   33  102 1    
    69   33  103 1    
    70   34   35 am   BACKBONE|DICT|INTERRES
    71   34  104 1    
    72   35   36 2    
    73   37   38 2    
    74   37   39 am   BACKBONE|DICT|INTERRES
    75   39   40 1    
    76   39  105 1    
    77   40   41 1    
    78   40   42 1    
    79   40  106 1    
    80   41  107 1    
    81   41  108 1    
    82   41  109 1    
    83   42   43 2    
    84   42   44 am   BACKBONE|DICT|INTERRES
    85   44   45 1    
    86   44  110 1    
    87   45   46 1    
    88   45   47 1    
    89   45  111 1    
    90   46  112 1    
    91   46  113 1    
    92   46  114 1    
    93   47   48 2    
    94   47   49 am   BACKBONE|DICT|INTERRES
    95   49   50 1    
    96   49  115 1    
    97   50   51 1    
    98   50   52 1    
    99   50  116 1    
   100   51  117 1    
   101   51  118 1    
   102   51  119 1    
   103   52   53 2    
   104   52   54 am   BACKBONE|DICT|INTERRES
   105   54   55 1    
   106   54  120 1    
   107   55   56 1    
   108   55   57 1    
   109   55  121 1    
   110   56  122 1    
   111   56  123 1    
   112   56  124 1    
   113   57   58 2    
   114   57   59 am   BACKBONE|DICT|INTERRES
   115   59   60 1    
   116   59  125 1    
   117   60   61 1    
   118   60   62 1    
   119   60  126 1    
   120   61  127 1    
   121   61  128 1    
   122   61  129 1    
   123   62   63 2    
   124   62   64 am   BACKBONE|DICT|INTERRES
   125   64   65 1    
   126   64  130 1    
   127   65   66 1    
   128   65   69 1    
   129   65  131 1    
   130   66   67 am   BACKBONE|DICT|INTERRES
   131   66   68 2    
   132   67  132 1    
   133   67  133 1    
   134   69   70 1    
   135   69  134 1    
   136   69  135 1    
   137   70   71 1    
   138   71  136 1    
   139   71  137 1    
@<TRIPOS>SUBSTRUCTURE
     1 UNK         1 GROUP             0       ****    0 ROOT    
