@<TRIPOS>MOLECULE
3R137
137   139    1
SMALL
USER_CHARGES


@<TRIPOS>ATOM
      1 CA         26.3539   -5.3189    2.1693 C.3       0 UNK        -0.2020 
      2 C          27.0606   -4.0601    1.6897 C.2       0 UNK         0.4855 
      3 O          27.1599   -3.0904    2.4417 O.2       0 UNK        -0.5197 
      4 N          27.5554   -4.0705    0.4450 N.am      1 UNK        -0.4892 
      5 CA         28.2682   -2.9532   -0.1924 C.3       1 UNK         0.0835 
      6 C6         28.9435   -3.3842   -1.5156 C.3       12 UNK        -0.0855 
      7 S7         30.1008   -4.7788   -1.2982 S.3       12 UNK        -0.2931 
      8 C8         31.4955   -4.2662   -2.3617 C.3       12 UNK         0.0378 
      9 C9         31.1676   -4.0907   -3.8474 C.ar      12 UNK        -0.0802 
     10 C10        32.0484   -3.3453   -4.6374 C.ar      12 UNK        -0.0944 
     11 C11        31.8136   -3.1730   -6.0035 C.ar      12 UNK        -0.0787 
     12 C12        30.6645   -3.7233   -6.5777 C.ar      12 UNK        -0.0862 
     13 C13        29.7691   -4.4730   -5.8088 C.ar      12 UNK        -0.0733 
     14 C14        30.0428   -4.6725   -4.4504 C.ar      12 UNK        -0.0832 
     15 C15        28.5513   -5.0988   -6.4897 C.3       12 UNK         0.0240 
     16 S16        27.0606   -5.2721   -5.4435 S.3       12 UNK        -0.2522 
     17 C17        26.6780   -3.5557   -4.9610 C.3       12 UNK        -0.0967 
     18 CA         26.1609   -2.6783   -6.1368 C.3       5 UNK         0.0660 
     19 N          24.9835   -1.8920   -5.7692 N.am      5 UNK        -0.4015 
     20 C          24.0661   -1.4438   -6.6387 C.2       4 UNK         0.4946 
     21 O          24.0375   -1.7579   -7.8290 O.2       4 UNK        -0.5353 
     22 CA         23.0008   -0.4681   -6.1020 C.3       4 UNK         0.0277 
     23 CB         21.7210   -1.2287   -5.7183 C.3       4 UNK        -0.1981 
     24 N          23.4512    0.3276   -4.9564 N.am      4 UNK        -0.4209 
     25 C          24.4474    1.2248   -4.9903 C.2       3 UNK         0.4942 
     26 O          25.0703    1.5184   -6.0084 O.2       3 UNK        -0.5208 
     27 CA         24.8619    1.8546   -3.6496 C.3       3 UNK         0.0250 
     28 CB         24.0424    3.1261   -3.3785 C.3       3 UNK        -0.1990 
     29 N          24.7541    0.9459   -2.5019 N.am      3 UNK        -0.4232 
     30 C          25.3502   -0.2506   -2.3953 C.2       2 UNK         0.4993 
     31 O          26.0374   -0.7622   -3.2862 O.2       2 UNK        -0.5286 
     32 CA         25.0511   -1.0321   -1.1054 C.3       2 UNK         0.0209 
     33 CB         23.6999   -1.7566   -1.2291 C.3       2 UNK        -0.1931 
     34 N          26.0822   -2.0212   -0.7920 N.am      2 UNK        -0.4546 
     35 C          27.3476   -1.7419   -0.4483 C.2       1 UNK         0.5154 
     36 O          27.7897   -0.5992   -0.3163 O.2       1 UNK        -0.5181 
     37 C          27.2580   -1.7274   -6.6437 C.2       5 UNK         0.5014 
     38 O          27.7767   -1.9217   -7.7434 O.2       5 UNK        -0.5248 
     39 N          27.5767   -0.7062   -5.8315 N.am      6 UNK        -0.4434 
     40 CA         28.6670    0.2424   -6.0713 C.3       6 UNK         0.0363 
     41 CB         28.8011    1.1961   -4.8763 C.3       6 UNK        -0.1936 
     42 C          28.5496    1.0328   -7.3838 C.2       6 UNK         0.5081 
     43 O          29.5742    1.3386   -7.9943 O.2       6 UNK        -0.5248 
     44 N          27.3149    1.3005   -7.8296 N.am      7 UNK        -0.4718 
     45 CA         26.9801    1.9303   -9.1111 C.3       7 UNK         0.0273 
     46 CB         25.4547    2.1026   -9.1996 C.3       7 UNK        -0.1935 
     47 C          27.5064    1.1968  -10.3617 C.2       7 UNK         0.5018 
     48 O          27.5399    1.8092  -11.4296 O.2       7 UNK        -0.5186 
     49 N          27.9218   -0.0728  -10.2247 N.am      8 UNK        -0.4240 
     50 CA         28.5452   -0.8667  -11.2861 C.3       8 UNK         0.0235 
     51 CB         28.7436   -2.3109  -10.7983 C.3       8 UNK        -0.2000 
     52 C          29.8800   -0.2913  -11.7957 C.2       8 UNK         0.4941 
     53 O          30.1754   -0.4523  -12.9810 O.2       8 UNK        -0.5273 
     54 N          30.6584    0.3584  -10.9161 N.am      9 UNK        -0.4262 
     55 CA         31.9648    0.9353  -11.2592 C.3       9 UNK         0.0264 
     56 CB         33.0558   -0.1509  -11.1568 C.3       9 UNK        -0.1955 
     57 C          32.3218    2.1931  -10.4455 C.2       9 UNK         0.5031 
     58 O          33.4816    2.6075  -10.4820 O.2       9 UNK        -0.5390 
     59 N          31.3475    2.7771   -9.7284 N.am      10 UNK        -0.4204 
     60 CA         31.4939    3.8768   -8.7613 C.3       10 UNK         0.0237 
     61 CB         31.9019    5.1918   -9.4603 C.3       10 UNK        -0.1985 
     62 C          32.4268    3.4815   -7.5987 C.2       10 UNK         0.4970 
     63 O          33.3697    4.2078   -7.2773 O.2       10 UNK        -0.4914 
     64 N          32.1614    2.2969   -7.0361 N.am      11 UNK        -0.4285 
     65 CA         32.9822    1.6148   -6.0260 C.3       11 UNK         0.1007 
     66 C          33.0845    2.3935   -4.6864 C.2       11 UNK         0.5703 
     67 N          34.2142    2.2967   -3.9982 N.am      11 UNK        -0.7361 
     68 O          32.1390    3.0448   -4.2458 O.2       11 UNK        -0.4986 
     69 C69        32.4937    0.1619   -5.7795 C.3       12 UNK        -0.0947 
     70 S70        32.2531   -0.7760   -7.3293 S.3       12 UNK        -0.2240 
     71 C71        32.8240   -2.4370   -6.8720 C.3       12 UNK         0.0194 
     72 H72        25.3212   -5.0920    2.4327 H         1 UNK         0.0906 
     73 H73        26.3461   -6.0986    1.4078 H         1 UNK         0.0906 
     74 H74        26.8521   -5.7148    3.0538 H         1 UNK         0.0906 
     75 H75        27.4817   -4.9104   -0.1122 H         1 UNK         0.3140 
     76 H76        29.0483   -2.6220    0.4970 H         1 UNK         0.1085 
     77 H77        29.4786   -2.5407   -1.9577 H         1 UNK         0.0836 
     78 H78        28.1916   -3.6839   -2.2470 H         1 UNK         0.0836 
     79 H79        31.9028   -3.3351   -1.9639 H         1 UNK         0.0731 
     80 H80        32.2868   -5.0114   -2.2709 H         1 UNK         0.0731 
     81 H81        32.9345   -2.9149   -4.1907 H         1 UNK         0.1312 
     82 H82        30.4781   -3.5802   -7.6337 H         1 UNK         0.1406 
     83 H83        29.3722   -5.2845   -3.8654 H         1 UNK         0.1631 
     84 H84        28.8351   -6.0917   -6.8401 H         1 UNK         0.0717 
     85 H85        28.2822   -4.5319   -7.3816 H         1 UNK         0.0717 
     86 H86        25.9168   -3.6271   -4.1822 H         1 UNK         0.0934 
     87 H87        27.5445   -3.1212   -4.4587 H         1 UNK         0.0934 
     88 H88        25.8807   -3.3304   -6.9673 H         1 UNK         0.0739 
     89 H89        24.9743   -1.5343   -4.8209 H         1 UNK         0.3093 
     90 H90        22.7595    0.2248   -6.9111 H         1 UNK         0.0818 
     91 H91        20.9255   -0.5448   -5.4221 H         1 UNK         0.0819 
     92 H92        21.3464   -1.8113   -6.5613 H         1 UNK         0.0819 
     93 H93        21.8937   -1.9225   -4.8944 H         1 UNK         0.0819 
     94 H94        22.9924    0.1575   -4.0735 H         1 UNK         0.3041 
     95 H95        25.9103    2.1419   -3.7339 H         1 UNK         0.0784 
     96 H96        24.1241    3.8271   -4.2106 H         1 UNK         0.0793 
     97 H97        22.9831    2.9048   -3.2419 H         1 UNK         0.0793 
     98 H98        24.3959    3.6444   -2.4869 H         1 UNK         0.0793 
     99 H99        24.1926    1.2741   -1.7289 H         1 UNK         0.3024 
    100 H100       25.0045   -0.3244   -0.2745 H         1 UNK         0.1171 
    101 H101       22.8878   -1.0524   -1.4148 H         1 UNK         0.0786 
    102 H102       23.4526   -2.2933   -0.3128 H         1 UNK         0.0786 
    103 H103       23.7010   -2.4765   -2.0490 H         1 UNK         0.0786 
    104 H104       25.8206   -2.9921   -0.8750 H         1 UNK         0.2977 
    105 H105       27.0869   -0.6240   -4.9444 H         1 UNK         0.3127 
    106 H106       29.5736   -0.3576   -6.1422 H         1 UNK         0.0770 
    107 H107       27.9242    1.8340   -4.7753 H         1 UNK         0.0814 
    108 H108       29.6642    1.8522   -4.9971 H         1 UNK         0.0814 
    109 H109       28.9349    0.6514   -3.9414 H         1 UNK         0.0814 
    110 H110       26.5302    1.0808   -7.2213 H         1 UNK         0.2983 
    111 H111       27.4378    2.9215   -9.1135 H         1 UNK         0.0947 
    112 H112       25.1608    2.5518  -10.1494 H         1 UNK         0.0806 
    113 H113       25.0839    2.7557   -8.4096 H         1 UNK         0.0806 
    114 H114       24.9372    1.1459   -9.1143 H         1 UNK         0.0806 
    115 H115       27.8483   -0.5143   -9.3131 H         1 UNK         0.3000 
    116 H116       27.8531   -0.8837  -12.1306 H         1 UNK         0.0850 
    117 H117       29.1688   -2.9354  -11.5851 H         1 UNK         0.0810 
    118 H118       27.7974   -2.7634  -10.5007 H         1 UNK         0.0810 
    119 H119       29.4193   -2.3572   -9.9430 H         1 UNK         0.0810 
    120 H120       30.3633    0.4161   -9.9482 H         1 UNK         0.3040 
    121 H121       31.9318    1.2778  -12.2958 H         1 UNK         0.0766 
    122 H122       34.0285    0.2330  -11.4666 H         1 UNK         0.0812 
    123 H123       32.8321   -1.0031  -11.7984 H         1 UNK         0.0812 
    124 H124       33.1606   -0.5189  -10.1367 H         1 UNK         0.0812 
    125 H125       30.4372    2.3364   -9.7200 H         1 UNK         0.3205 
    126 H126       30.5077    4.0326   -8.3210 H         1 UNK         0.0754 
    127 H127       31.8985    6.0235   -8.7548 H         1 UNK         0.0769 
    128 H128       31.2093    5.4447  -10.2629 H         1 UNK         0.0769 
    129 H129       32.9035    5.1345   -9.8873 H         1 UNK         0.0769 
    130 H130       31.3458    1.7869   -7.3609 H         1 UNK         0.2981 
    131 H131       33.9878    1.5562   -6.4473 H         1 UNK         0.0541 
    132 H132       34.9919    1.7558   -4.3429 H         1 UNK         0.3459 
    133 H133       34.2935    2.7825   -3.1186 H         1 UNK         0.3459 
    134 H134       31.5584    0.1558   -5.2207 H         1 UNK         0.0612 
    135 H135       33.2158   -0.3670   -5.1555 H         1 UNK         0.0612 
    136 H136       33.7943   -2.3697   -6.3778 H         1 UNK         0.0624 
    137 H137       32.9901   -3.0081   -7.7865 H         1 UNK         0.0624 
@<TRIPOS>BOND
     1    1    2 1    
     2    1   72 1    
     3    1   73 1    
     4    1   74 1    
     5    2    3 2    
     6    2    4 am   BACKBONE|DICT|INTERRES
     7    4    5 1    
     8    4   75 1    
     9    5    6 1    
    10    5   35 1    
    11    5   76 1    
    12    6    7 1    
    13    6   77 1    
    14    6   78 1    
    15    7    8 1    
    16    8    9 1    
    17    8   79 1    
    18    8   80 1    
    19    9   10 ar   
    20    9   14 ar   
    21   10   11 ar   
    22   10   81 1    
    23   11   12 ar   
    24   11   71 1    
    25   12   13 ar   
    26   12   82 1    
    27   13   14 ar   
    28   13   15 1    
    29   14   83 1    
    30   15   16 1    
    31   15   84 1    
    32   15   85 1    
    33   16   17 1    
    34   17   18 1    
    35   17   86 1    
    36   17   87 1    
    37   18   19 1    
    38   18   37 1    
    39   18   88 1    
    40   19   20 am   BACKBONE|DICT|INTERRES
    41   19   89 1    
    42   20   21 2    
    43   20   22 1    
    44   22   23 1    
    45   22   24 1    
    46   22   90 1    
    47   23   91 1    
    48   23   92 1    
    49   23   93 1    
    50   24   25 am   BACKBONE|DICT|INTERRES
    51   24   94 1    
    52   25   26 2    
    53   25   27 1    
    54   27   28 1    
    55   27   29 1    
    56   27   95 1    
    57   28   96 1    
    58   28   97 1    
    59   28   98 1    
    60   29   30 am   BACKBONE|DICT|INTERRES
    61   29   99 1    
    62   30   31 2    
    63   30   32 1    
    64   32   33 1    
    65   32   34 1    
    66   32  100 1    
    67   33  101 1    
    68   33  102 1    
    69   33  103 1    
    70   34   35 am   BACKBONE|DICT|INTERRES
    71   34  104 1    
    72   35   36 2    
    73   37   38 2    
    74   37   39 am   BACKBONE|DICT|INTERRES
    75   39   40 1    
    76   39  105 1    
    77   40   41 1    
    78   40   42 1    
    79   40  106 1    
    80   41  107 1    
    81   41  108 1    
    82   41  109 1    
    83   42   43 2    
    84   42   44 am   BACKBONE|DICT|INTERRES
    85   44   45 1    
    86   44  110 1    
    87   45   46 1    
    88   45   47 1    
    89   45  111 1    
    90   46  112 1    
    91   46  113 1    
    92   46  114 1    
    93   47   48 2    
    94   47   49 am   BACKBONE|DICT|INTERRES
    95   49   50 1    
    96   49  115 1    
    97   50   51 1    
    98   50   52 1    
    99   50  116 1    
   100   51  117 1    
   101   51  118 1    
   102   51  119 1    
   103   52   53 2    
   104   52   54 am   BACKBONE|DICT|INTERRES
   105   54   55 1    
   106   54  120 1    
   107   55   56 1    
   108   55   57 1    
   109   55  121 1    
   110   56  122 1    
   111   56  123 1    
   112   56  124 1    
   113   57   58 2    
   114   57   59 am   BACKBONE|DICT|INTERRES
   115   59   60 1    
   116   59  125 1    
   117   60   61 1    
   118   60   62 1    
   119   60  126 1    
   120   61  127 1    
   121   61  128 1    
   122   61  129 1    
   123   62   63 2    
   124   62   64 am   BACKBONE|DICT|INTERRES
   125   64   65 1    
   126   64  130 1    
   127   65   66 1    
   128   65   69 1    
   129   65  131 1    
   130   66   67 am   BACKBONE|DICT|INTERRES
   131   66   68 2    
   132   67  132 1    
   133   67  133 1    
   134   69   70 1    
   135   69  134 1    
   136   69  135 1    
   137   70   71 1    
   138   71  136 1    
   139   71  137 1    
@<TRIPOS>SUBSTRUCTURE
     1 UNK         1 GROUP             0       ****    0 ROOT    
