@<TRIPOS>MOLECULE
3R137
137   139    1
SMALL
USER_CHARGES


@<TRIPOS>ATOM
      1 CA         25.6260   -2.0241    4.4055 C.3       0 UNK        -0.2020 
      2 C          26.1670   -2.3748    3.0271 C.2       0 UNK         0.4855 
      3 O          26.1891   -3.5514    2.6639 O.2       0 UNK        -0.5197 
      4 N          26.6066   -1.3625    2.2661 N.am      1 UNK        -0.4892 
      5 CA         27.1171   -1.4649    0.8922 C.3       1 UNK         0.0835 
      6 C6         28.4110   -2.3282    0.7980 C.3       12 UNK        -0.0855 
      7 S7         29.4587   -1.8597   -0.6198 S.3       12 UNK        -0.2931 
      8 C8         30.2576   -3.4431   -1.0376 C.3       12 UNK         0.0378 
      9 C9         30.7861   -3.4136   -2.4638 C.ar      12 UNK        -0.0802 
     10 C10        31.8290   -2.5460   -2.8076 C.ar      12 UNK        -0.0944 
     11 C11        32.2645   -2.4501   -4.1319 C.ar      12 UNK        -0.0787 
     12 C12        31.6788   -3.2622   -5.1056 C.ar      12 UNK        -0.0862 
     13 C13        30.6298   -4.1264   -4.7786 C.ar      12 UNK        -0.0733 
     14 C14        30.1961   -4.2096   -3.4522 C.ar      12 UNK        -0.0832 
     15 C15        29.9113   -4.8955   -5.8820 C.3       12 UNK         0.0240 
     16 S16        28.2326   -4.2460   -6.2181 S.3       12 UNK        -0.2522 
     17 C17        28.4556   -2.4413   -6.0524 C.3       12 UNK        -0.0967 
     18 CA         27.6503   -1.6043   -7.0661 C.3       5 UNK         0.0660 
     19 N          26.2037   -1.7978   -6.9510 N.am      5 UNK        -0.4015 
     20 C          25.3031   -1.3133   -7.8183 C.2       4 UNK         0.4946 
     21 O          25.5958   -0.6771   -8.8310 O.2       4 UNK        -0.5353 
     22 CA         23.8224   -1.5358   -7.4704 C.3       4 UNK         0.0277 
     23 CB         23.3825   -2.9604   -7.8442 C.3       4 UNK        -0.1981 
     24 N          23.5322   -1.2806   -6.0569 N.am      4 UNK        -0.4209 
     25 C          23.6537   -0.0834   -5.4646 C.2       3 UNK         0.4942 
     26 O          23.9842    0.9432   -6.0557 O.2       3 UNK        -0.5208 
     27 CA         23.4067   -0.0259   -3.9484 C.3       3 UNK         0.0250 
     28 CB         21.9135    0.1869   -3.6529 C.3       3 UNK        -0.1990 
     29 N          23.8902   -1.2052   -3.2223 N.am      3 UNK        -0.4232 
     30 C          25.1663   -1.6128   -3.1875 C.2       2 UNK         0.4993 
     31 O          26.0810   -1.0678   -3.8115 O.2       2 UNK        -0.5286 
     32 CA         25.4709   -2.8441   -2.3221 C.3       2 UNK         0.0209 
     33 CB         26.1205   -3.9615   -3.1533 C.3       2 UNK        -0.1931 
     34 N          26.3697   -2.4783   -1.2310 N.am      2 UNK        -0.4546 
     35 C          25.9971   -1.8568   -0.1060 C.2       1 UNK         0.5154 
     36 O          24.8228   -1.5682    0.1439 O.2       1 UNK        -0.5181 
     37 C          28.0364   -0.1243   -6.9071 C.2       5 UNK         0.5014 
     38 O          28.8860    0.3566   -7.6587 O.2       5 UNK        -0.5248 
     39 N          27.4118    0.5600   -5.9367 N.am      6 UNK        -0.4434 
     40 CA         27.6008    1.9865   -5.6725 C.3       6 UNK         0.0363 
     41 CB         26.8882    2.3707   -4.3663 C.3       6 UNK        -0.1936 
     42 C          27.1294    2.8696   -6.8394 C.2       6 UNK         0.5081 
     43 O          27.8434    3.7989   -7.2146 O.2       6 UNK        -0.5248 
     44 N          25.9620    2.5452   -7.4146 N.am      7 UNK        -0.4718 
     45 CA         25.4004    3.2096   -8.5941 C.3       7 UNK         0.0273 
     46 CB         23.9581    2.7294   -8.8209 C.3       7 UNK        -0.1935 
     47 C          26.2475    2.9981   -9.8598 C.2       7 UNK         0.5018 
     48 O          26.4383    3.9457  -10.6230 O.2       7 UNK        -0.5186 
     49 N          26.7543    1.7717  -10.0504 N.am      8 UNK        -0.4240 
     50 CA         27.6569    1.4128  -11.1477 C.3       8 UNK         0.0235 
     51 CB         27.7086   -0.1190  -11.2728 C.3       8 UNK        -0.2000 
     52 C          29.0822    1.9728  -10.9855 C.2       8 UNK         0.4941 
     53 O          29.7917    2.0798  -11.9864 O.2       8 UNK        -0.5273 
     54 N          29.4808    2.2766   -9.7395 N.am      9 UNK        -0.4262 
     55 CA         30.8389    2.5996   -9.2836 C.3       9 UNK         0.0264 
     56 CB         31.3248    3.9419   -9.8694 C.3       9 UNK        -0.1955 
     57 C          31.8029    1.4276   -9.5522 C.2       9 UNK         0.5031 
     58 O          32.8792    1.6219  -10.1205 O.2       9 UNK        -0.5390 
     59 N          31.3661    0.2189   -9.1681 N.am      10 UNK        -0.4204 
     60 CA         31.9530   -1.0689   -9.5578 C.3       10 UNK         0.0237 
     61 CB         31.0822   -2.2063   -9.0032 C.3       10 UNK        -0.1985 
     62 C          33.4326   -1.2808   -9.1838 C.2       10 UNK         0.4970 
     63 O          34.1264   -1.9958   -9.9084 O.2       10 UNK        -0.4914 
     64 N          33.8919   -0.6628   -8.0881 N.am      11 UNK        -0.4285 
     65 CA         35.3066   -0.6655   -7.6713 C.3       11 UNK         0.1007 
     66 C          36.1675    0.4397   -8.3537 C.2       11 UNK         0.5703 
     67 N          35.6177    1.3066   -9.1967 N.am      11 UNK        -0.7361 
     68 O          37.3732    0.5041   -8.1249 O.2       11 UNK        -0.4986 
     69 C69        35.4646   -0.6427   -6.1264 C.3       12 UNK        -0.0947 
     70 S70        34.7522   -2.1237   -5.3338 S.3       12 UNK        -0.2240 
     71 C71        33.2890   -1.4000   -4.5356 C.3       12 UNK         0.0194 
     72 H72        26.1979   -2.5410    5.1757 H         1 UNK         0.0906 
     73 H73        24.5846   -2.3338    4.4889 H         1 UNK         0.0906 
     74 H74        25.6784   -0.9541    4.6057 H         1 UNK         0.0906 
     75 H75        26.5261   -0.4185    2.6193 H         1 UNK         0.3140 
     76 H76        27.3846   -0.4413    0.6238 H         1 UNK         0.1085 
     77 H77        28.1688   -3.3923    0.7690 H         1 UNK         0.0836 
     78 H78        29.0171   -2.1889    1.6947 H         1 UNK         0.0836 
     79 H79        31.0767   -3.6328   -0.3424 H         1 UNK         0.0731 
     80 H80        29.5472   -4.2622   -0.9148 H         1 UNK         0.0731 
     81 H81        32.2623   -1.9082   -2.0491 H         1 UNK         0.1312 
     82 H82        32.0093   -3.1789   -6.1311 H         1 UNK         0.1406 
     83 H83        29.3701   -4.8621   -3.2035 H         1 UNK         0.1631 
     84 H84        29.8373   -5.9481   -5.6054 H         1 UNK         0.0717 
     85 H85        30.4875   -4.8632   -6.8081 H         1 UNK         0.0717 
     86 H86        28.2124   -2.1596   -5.0262 H         1 UNK         0.0934 
     87 H87        29.5099   -2.2047   -6.1797 H         1 UNK         0.0934 
     88 H88        27.9423   -1.9123   -8.0722 H         1 UNK         0.0739 
     89 H89        25.8822   -2.2819   -6.1264 H         1 UNK         0.3093 
     90 H90        23.2358   -0.8308   -8.0637 H         1 UNK         0.0818 
     91 H91        23.5785   -3.1635   -8.8982 H         1 UNK         0.0819 
     92 H92        23.9117   -3.7169   -7.2633 H         1 UNK         0.0819 
     93 H93        22.3134   -3.1003   -7.6836 H         1 UNK         0.0819 
     94 H94        23.2447   -2.0679   -5.4943 H         1 UNK         0.3041 
     95 H95        23.9536    0.8372   -3.5638 H         1 UNK         0.0784 
     96 H96        21.5368    1.0721   -4.1678 H         1 UNK         0.0793 
     97 H97        21.3101   -0.6612   -3.9791 H         1 UNK         0.0793 
     98 H98        21.7369    0.3358   -2.5875 H         1 UNK         0.0793 
     99 H99        23.2074   -1.6996   -2.6656 H         1 UNK         0.3024 
    100 H100       24.5398   -3.2316   -1.9019 H         1 UNK         0.1171 
    101 H101       27.1013   -3.6654   -3.5234 H         1 UNK         0.0786 
    102 H102       26.2500   -4.8685   -2.5628 H         1 UNK         0.0786 
    103 H103       25.5070   -4.2213   -4.0169 H         1 UNK         0.0786 
    104 H104       27.3608   -2.5996   -1.3953 H         1 UNK         0.2977 
    105 H105       26.7760    0.0601   -5.3208 H         1 UNK         0.3127 
    106 H106       28.6712    2.1571   -5.5383 H         1 UNK         0.0770 
    107 H107       27.0677    3.4177   -4.1191 H         1 UNK         0.0814 
    108 H108       25.8094    2.2337   -4.4390 H         1 UNK         0.0814 
    109 H109       27.2454    1.7719   -3.5281 H         1 UNK         0.0814 
    110 H110       25.4011    1.8034   -7.0010 H         1 UNK         0.2983 
    111 H111       25.3749    4.2825   -8.3912 H         1 UNK         0.0947 
    112 H112       23.9133    1.6526   -8.9890 H         1 UNK         0.0806 
    113 H113       23.5148    3.2163   -9.6905 H         1 UNK         0.0806 
    114 H114       23.3257    2.9587   -7.9631 H         1 UNK         0.0806 
    115 H115       26.4863    1.0252   -9.4144 H         1 UNK         0.3000 
    116 H116       27.2476    1.8192  -12.0751 H         1 UNK         0.0850 
    117 H117       28.3539   -0.4247  -12.0975 H         1 UNK         0.0810 
    118 H118       26.7192   -0.5350  -11.4637 H         1 UNK         0.0810 
    119 H119       28.0963   -0.5830  -10.3649 H         1 UNK         0.0810 
    120 H120       28.8190    2.0956   -8.9940 H         1 UNK         0.3040 
    121 H121       30.7800    2.7121   -8.1999 H         1 UNK         0.0766 
    122 H122       31.4563    3.8918  -10.9506 H         1 UNK         0.0812 
    123 H123       32.2857    4.2275   -9.4399 H         1 UNK         0.0812 
    124 H124       30.6203    4.7450   -9.6533 H         1 UNK         0.0812 
    125 H125       30.4743    0.1844   -8.6770 H         1 UNK         0.3205 
    126 H126       31.9022   -1.1142  -10.6477 H         1 UNK         0.0754 
    127 H127       31.4949   -3.1834   -9.2587 H         1 UNK         0.0769 
    128 H128       30.0719   -2.1667   -9.4104 H         1 UNK         0.0769 
    129 H129       31.0090   -2.1536   -7.9191 H         1 UNK         0.0769 
    130 H130       33.2664   -0.0713   -7.5635 H         1 UNK         0.2981 
    131 H131       35.7534   -1.6029   -8.0080 H         1 UNK         0.0541 
    132 H132       36.2039    2.0043   -9.6257 H         1 UNK         0.3459 
    133 H133       34.6301    1.2728   -9.4337 H         1 UNK         0.3459 
    134 H134       35.0227    0.2625   -5.7064 H         1 UNK         0.0612 
    135 H135       36.5199   -0.6181   -5.8487 H         1 UNK         0.0612 
    136 H136       32.8079   -0.7030   -5.2230 H         1 UNK         0.0624 
    137 H137       33.6120   -0.8144   -3.6734 H         1 UNK         0.0624 
@<TRIPOS>BOND
     1    1    2 1    
     2    1   72 1    
     3    1   73 1    
     4    1   74 1    
     5    2    3 2    
     6    2    4 am   BACKBONE|DICT|INTERRES
     7    4    5 1    
     8    4   75 1    
     9    5    6 1    
    10    5   35 1    
    11    5   76 1    
    12    6    7 1    
    13    6   77 1    
    14    6   78 1    
    15    7    8 1    
    16    8    9 1    
    17    8   79 1    
    18    8   80 1    
    19    9   10 ar   
    20    9   14 ar   
    21   10   11 ar   
    22   10   81 1    
    23   11   12 ar   
    24   11   71 1    
    25   12   13 ar   
    26   12   82 1    
    27   13   14 ar   
    28   13   15 1    
    29   14   83 1    
    30   15   16 1    
    31   15   84 1    
    32   15   85 1    
    33   16   17 1    
    34   17   18 1    
    35   17   86 1    
    36   17   87 1    
    37   18   19 1    
    38   18   37 1    
    39   18   88 1    
    40   19   20 am   BACKBONE|DICT|INTERRES
    41   19   89 1    
    42   20   21 2    
    43   20   22 1    
    44   22   23 1    
    45   22   24 1    
    46   22   90 1    
    47   23   91 1    
    48   23   92 1    
    49   23   93 1    
    50   24   25 am   BACKBONE|DICT|INTERRES
    51   24   94 1    
    52   25   26 2    
    53   25   27 1    
    54   27   28 1    
    55   27   29 1    
    56   27   95 1    
    57   28   96 1    
    58   28   97 1    
    59   28   98 1    
    60   29   30 am   BACKBONE|DICT|INTERRES
    61   29   99 1    
    62   30   31 2    
    63   30   32 1    
    64   32   33 1    
    65   32   34 1    
    66   32  100 1    
    67   33  101 1    
    68   33  102 1    
    69   33  103 1    
    70   34   35 am   BACKBONE|DICT|INTERRES
    71   34  104 1    
    72   35   36 2    
    73   37   38 2    
    74   37   39 am   BACKBONE|DICT|INTERRES
    75   39   40 1    
    76   39  105 1    
    77   40   41 1    
    78   40   42 1    
    79   40  106 1    
    80   41  107 1    
    81   41  108 1    
    82   41  109 1    
    83   42   43 2    
    84   42   44 am   BACKBONE|DICT|INTERRES
    85   44   45 1    
    86   44  110 1    
    87   45   46 1    
    88   45   47 1    
    89   45  111 1    
    90   46  112 1    
    91   46  113 1    
    92   46  114 1    
    93   47   48 2    
    94   47   49 am   BACKBONE|DICT|INTERRES
    95   49   50 1    
    96   49  115 1    
    97   50   51 1    
    98   50   52 1    
    99   50  116 1    
   100   51  117 1    
   101   51  118 1    
   102   51  119 1    
   103   52   53 2    
   104   52   54 am   BACKBONE|DICT|INTERRES
   105   54   55 1    
   106   54  120 1    
   107   55   56 1    
   108   55   57 1    
   109   55  121 1    
   110   56  122 1    
   111   56  123 1    
   112   56  124 1    
   113   57   58 2    
   114   57   59 am   BACKBONE|DICT|INTERRES
   115   59   60 1    
   116   59  125 1    
   117   60   61 1    
   118   60   62 1    
   119   60  126 1    
   120   61  127 1    
   121   61  128 1    
   122   61  129 1    
   123   62   63 2    
   124   62   64 am   BACKBONE|DICT|INTERRES
   125   64   65 1    
   126   64  130 1    
   127   65   66 1    
   128   65   69 1    
   129   65  131 1    
   130   66   67 am   BACKBONE|DICT|INTERRES
   131   66   68 2    
   132   67  132 1    
   133   67  133 1    
   134   69   70 1    
   135   69  134 1    
   136   69  135 1    
   137   70   71 1    
   138   71  136 1    
   139   71  137 1    
@<TRIPOS>SUBSTRUCTURE
     1 UNK         1 GROUP             0       ****    0 ROOT    
