@<TRIPOS>MOLECULE
3R137
137   139    1
SMALL
USER_CHARGES


@<TRIPOS>ATOM
      1 CA         26.0381   -3.5578    2.9791 C.3       0 UNK        -0.2020 
      2 C          26.6864   -2.8766    1.7835 C.2       0 UNK         0.4855 
      3 O          26.9762   -1.6821    1.8415 O.2       0 UNK        -0.5197 
      4 N          26.9000   -3.6204    0.6906 N.am      1 UNK        -0.4892 
      5 CA         27.5517   -3.1540   -0.5425 C.3       1 UNK         0.0835 
      6 C6         28.3839   -4.2797   -1.2139 C.3       12 UNK        -0.0855 
      7 S7         29.9261   -4.5743   -0.2841 S.3       12 UNK        -0.2931 
      8 C8         31.2116   -4.3225   -1.5629 C.3       12 UNK         0.0378 
      9 C9         31.1924   -2.9635   -2.2690 C.ar      12 UNK        -0.0802 
     10 C10        31.5883   -2.8950   -3.6088 C.ar      12 UNK        -0.0944 
     11 C11        31.6107   -1.6744   -4.2963 C.ar      12 UNK        -0.0787 
     12 C12        31.2412   -0.5109   -3.6161 C.ar      12 UNK        -0.0862 
     13 C13        30.8290   -0.5556   -2.2796 C.ar      12 UNK        -0.0733 
     14 C14        30.8260   -1.7840   -1.6093 C.ar      12 UNK        -0.0832 
     15 C15        30.4166    0.7135   -1.5328 C.3       12 UNK         0.0240 
     16 S16        29.4264    1.8938   -2.5208 S.3       12 UNK        -0.2522 
     17 C17        27.9880    0.8831   -3.0075 C.3       12 UNK        -0.0967 
     18 CA         27.9541    0.6173   -4.5373 C.3       5 UNK         0.0660 
     19 N          27.5326   -0.7519   -4.8486 N.am      5 UNK        -0.4015 
     20 C          27.5591   -1.3269   -6.0599 C.2       4 UNK         0.4946 
     21 O          27.8985   -0.7420   -7.0875 O.2       4 UNK        -0.5353 
     22 CA         27.0942   -2.7877   -6.1411 C.3       4 UNK         0.0277 
     23 CB         28.1979   -3.7378   -5.6527 C.3       4 UNK        -0.1981 
     24 N          25.8916   -2.9931   -5.3358 N.am      4 UNK        -0.4209 
     25 C          24.6384   -2.8944   -5.7974 C.2       3 UNK         0.4942 
     26 O          24.3543   -2.7030   -6.9801 O.2       3 UNK        -0.5208 
     27 CA         23.5009   -3.0217   -4.7657 C.3       3 UNK         0.0250 
     28 CB         23.0205   -4.4790   -4.6731 C.3       3 UNK        -0.1990 
     29 N          23.8520   -2.5416   -3.4245 N.am      3 UNK        -0.4232 
     30 C          24.1725   -1.2741   -3.1305 C.2       2 UNK         0.4993 
     31 O          24.2254   -0.3679   -3.9616 O.2       2 UNK        -0.5286 
     32 CA         24.5512   -0.9719   -1.6713 C.3       2 UNK         0.0209 
     33 CB         23.2876   -0.7929   -0.8144 C.3       2 UNK        -0.1931 
     34 N          25.4500   -1.9359   -1.0179 N.am      2 UNK        -0.4546 
     35 C          26.5813   -2.4550   -1.5195 C.2       1 UNK         0.5154 
     36 O          26.8946   -2.3618   -2.7056 O.2       1 UNK        -0.5181 
     37 C          27.1476    1.6936   -5.2940 C.2       5 UNK         0.5014 
     38 O          27.7031    2.7444   -5.6144 O.2       5 UNK        -0.5248 
     39 N          25.8811    1.4017   -5.6292 N.am      6 UNK        -0.4434 
     40 CA         25.0254    2.2188   -6.4968 C.3       6 UNK         0.0363 
     41 CB         23.6324    1.5748   -6.5828 C.3       6 UNK        -0.1936 
     42 C          25.5894    2.4571   -7.9134 C.2       6 UNK         0.5081 
     43 O          25.2402    3.4643   -8.5295 O.2       6 UNK        -0.5248 
     44 N          26.4561    1.5568   -8.4010 N.am      7 UNK        -0.4718 
     45 CA         27.1737    1.6976   -9.6718 C.3       7 UNK         0.0273 
     46 CB         27.3713    0.3032  -10.2856 C.3       7 UNK        -0.1935 
     47 C          28.5242    2.4252   -9.5167 C.2       7 UNK         0.5018 
     48 O          29.2227    2.6023  -10.5167 O.2       7 UNK        -0.5186 
     49 N          28.8806    2.8277   -8.2864 N.am      8 UNK        -0.4240 
     50 CA         30.1113    3.5224   -7.9008 C.3       8 UNK         0.0235 
     51 CB         30.0826    4.9827   -8.4094 C.3       8 UNK        -0.2000 
     52 C          31.3652    2.7253   -8.3073 C.2       8 UNK         0.4941 
     53 O          31.4638    1.5462   -7.9635 O.2       8 UNK        -0.5273 
     54 N          32.2860    3.3655   -9.0406 N.am      9 UNK        -0.4262 
     55 CA         33.5507    2.7940   -9.5106 C.3       9 UNK         0.0264 
     56 CB         34.3984    3.9077  -10.1473 C.3       9 UNK        -0.1955 
     57 C          33.4022    1.6095  -10.4838 C.2       9 UNK         0.5031 
     58 O          34.3426    0.8220  -10.5994 O.2       9 UNK        -0.5390 
     59 N          32.2491    1.4891  -11.1609 N.am      10 UNK        -0.4204 
     60 CA         31.9391    0.3519  -12.0326 C.3       10 UNK         0.0237 
     61 CB         30.7728    0.7093  -12.9673 C.3       10 UNK        -0.1985 
     62 C          31.6357   -0.9334  -11.2415 C.2       10 UNK         0.4970 
     63 O          31.9297   -2.0200  -11.7417 O.2       10 UNK        -0.4914 
     64 N          31.0881   -0.7836  -10.0258 N.am      11 UNK        -0.4285 
     65 CA         30.7692   -1.8599   -9.0775 C.3       11 UNK         0.1007 
     66 C          29.7756   -2.9313   -9.6333 C.2       11 UNK         0.5703 
     67 N          29.7463   -4.1315   -9.0699 N.am      11 UNK        -0.7361 
     68 O          28.9964   -2.6749  -10.5491 O.2       11 UNK        -0.4986 
     69 C69        32.0684   -2.4335   -8.4348 C.3       12 UNK        -0.0947 
     70 S70        31.8047   -3.0710   -6.7487 S.3       12 UNK        -0.2240 
     71 C71        32.0542   -1.5602   -5.7565 C.3       12 UNK         0.0194 
     72 H72        25.8254   -4.6089    2.7849 H         1 UNK         0.0906 
     73 H73        26.6971   -3.5003    3.8450 H         1 UNK         0.0906 
     74 H74        25.1006   -3.0628    3.2312 H         1 UNK         0.0906 
     75 H75        26.6286   -4.5941    0.6962 H         1 UNK         0.3140 
     76 H76        28.2482   -2.3581   -0.2724 H         1 UNK         0.1085 
     77 H77        27.8121   -5.2072   -1.2722 H         1 UNK         0.0836 
     78 H78        28.6527   -4.0351   -2.2422 H         1 UNK         0.0836 
     79 H79        31.1113   -5.1244   -2.2964 H         1 UNK         0.0731 
     80 H80        32.1898   -4.4539   -1.0990 H         1 UNK         0.0731 
     81 H81        31.8915   -3.8025   -4.1112 H         1 UNK         0.1312 
     82 H82        31.2739    0.4380   -4.1335 H         1 UNK         0.1406 
     83 H83        30.5450   -1.8210   -0.5662 H         1 UNK         0.1631 
     84 H84        31.3187    1.2206   -1.1888 H         1 UNK         0.0717 
     85 H85        29.8464    0.4592   -0.6377 H         1 UNK         0.0717 
     86 H86        28.0477   -0.0529   -2.4544 H         1 UNK         0.0934 
     87 H87        27.0734    1.3648   -2.6559 H         1 UNK         0.0934 
     88 H88        28.9721    0.6846   -4.9260 H         1 UNK         0.0739 
     89 H89        27.2564   -1.3272   -4.0541 H         1 UNK         0.3093 
     90 H90        26.8850   -3.0213   -7.1876 H         1 UNK         0.0818 
     91 H91        28.5286   -3.5013   -4.6408 H         1 UNK         0.0819 
     92 H92        27.8651   -4.7756   -5.6650 H         1 UNK         0.0819 
     93 H93        29.0683   -3.6725   -6.3015 H         1 UNK         0.0819 
     94 H94        26.0331   -3.0874   -4.3355 H         1 UNK         0.3041 
     95 H95        22.6702   -2.4105   -5.1251 H         1 UNK         0.0784 
     96 H96        22.7271   -4.8560   -5.6541 H         1 UNK         0.0793 
     97 H97        23.8009   -5.1383   -4.2908 H         1 UNK         0.0793 
     98 H98        22.1519   -4.5707   -4.0206 H         1 UNK         0.0793 
     99 H99        23.8578   -3.2218   -2.6782 H         1 UNK         0.3024 
    100 H100       25.0809   -0.0172   -1.6835 H         1 UNK         0.1171 
    101 H101       22.6060   -0.0706   -1.2665 H         1 UNK         0.0786 
    102 H102       23.5321   -0.4226    0.1815 H         1 UNK         0.0786 
    103 H103       22.7412   -1.7297   -0.6992 H         1 UNK         0.0786 
    104 H104       25.2990   -2.0757   -0.0289 H         1 UNK         0.2977 
    105 H105       25.4609    0.5566   -5.2524 H         1 UNK         0.3127 
    106 H106       24.9220    3.1974   -6.0237 H         1 UNK         0.0770 
    107 H107       23.6826    0.5590   -6.9778 H         1 UNK         0.0814 
    108 H108       22.9728    2.1486   -7.2354 H         1 UNK         0.0814 
    109 H109       23.1553    1.5303   -5.6037 H         1 UNK         0.0814 
    110 H110       26.7255    0.7628   -7.8267 H         1 UNK         0.2983 
    111 H111       26.5718    2.2867  -10.3671 H         1 UNK         0.0947 
    112 H112       27.8090    0.3684  -11.2818 H         1 UNK         0.0806 
    113 H113       26.4251   -0.2288  -10.3840 H         1 UNK         0.0806 
    114 H114       28.0373   -0.3086   -9.6784 H         1 UNK         0.0806 
    115 H115       28.2536    2.6239   -7.5144 H         1 UNK         0.3000 
    116 H116       30.1161    3.5517   -6.8102 H         1 UNK         0.0850 
    117 H117       30.9382    5.5504   -8.0412 H         1 UNK         0.0810 
    118 H118       29.1895    5.4974   -8.0543 H         1 UNK         0.0810 
    119 H119       30.0803    5.0418   -9.4986 H         1 UNK         0.0810 
    120 H120       32.1057    4.3271   -9.2907 H         1 UNK         0.3040 
    121 H121       34.0830    2.4194   -8.6337 H         1 UNK         0.0766 
    122 H122       34.6009    4.7097   -9.4371 H         1 UNK         0.0812 
    123 H123       33.9053    4.3433  -11.0173 H         1 UNK         0.0812 
    124 H124       35.3637    3.5225  -10.4795 H         1 UNK         0.0812 
    125 H125       31.5102    2.1633  -11.0015 H         1 UNK         0.3205 
    126 H126       32.8139    0.1534  -12.6559 H         1 UNK         0.0754 
    127 H127       30.5692   -0.1059  -13.6629 H         1 UNK         0.0769 
    128 H128       30.9965    1.5949  -13.5622 H         1 UNK         0.0769 
    129 H129       29.8535    0.8993  -12.4149 H         1 UNK         0.0769 
    130 H130       30.9172    0.1523   -9.6830 H         1 UNK         0.2981 
    131 H131       30.2096   -1.3485   -8.2947 H         1 UNK         0.0541 
    132 H132       30.3729   -4.3486   -8.3097 H         1 UNK         0.3459 
    133 H133       29.1018   -4.8248   -9.4146 H         1 UNK         0.3459 
    134 H134       32.8374   -1.6610   -8.3745 H         1 UNK         0.0612 
    135 H135       32.4945   -3.2231   -9.0560 H         1 UNK         0.0612 
    136 H136       33.1099   -1.2881   -5.7855 H         1 UNK         0.0624 
    137 H137       31.5069   -0.7461   -6.2353 H         1 UNK         0.0624 
@<TRIPOS>BOND
     1    1    2 1    
     2    1   72 1    
     3    1   73 1    
     4    1   74 1    
     5    2    3 2    
     6    2    4 am   BACKBONE|DICT|INTERRES
     7    4    5 1    
     8    4   75 1    
     9    5    6 1    
    10    5   35 1    
    11    5   76 1    
    12    6    7 1    
    13    6   77 1    
    14    6   78 1    
    15    7    8 1    
    16    8    9 1    
    17    8   79 1    
    18    8   80 1    
    19    9   10 ar   
    20    9   14 ar   
    21   10   11 ar   
    22   10   81 1    
    23   11   12 ar   
    24   11   71 1    
    25   12   13 ar   
    26   12   82 1    
    27   13   14 ar   
    28   13   15 1    
    29   14   83 1    
    30   15   16 1    
    31   15   84 1    
    32   15   85 1    
    33   16   17 1    
    34   17   18 1    
    35   17   86 1    
    36   17   87 1    
    37   18   19 1    
    38   18   37 1    
    39   18   88 1    
    40   19   20 am   BACKBONE|DICT|INTERRES
    41   19   89 1    
    42   20   21 2    
    43   20   22 1    
    44   22   23 1    
    45   22   24 1    
    46   22   90 1    
    47   23   91 1    
    48   23   92 1    
    49   23   93 1    
    50   24   25 am   BACKBONE|DICT|INTERRES
    51   24   94 1    
    52   25   26 2    
    53   25   27 1    
    54   27   28 1    
    55   27   29 1    
    56   27   95 1    
    57   28   96 1    
    58   28   97 1    
    59   28   98 1    
    60   29   30 am   BACKBONE|DICT|INTERRES
    61   29   99 1    
    62   30   31 2    
    63   30   32 1    
    64   32   33 1    
    65   32   34 1    
    66   32  100 1    
    67   33  101 1    
    68   33  102 1    
    69   33  103 1    
    70   34   35 am   BACKBONE|DICT|INTERRES
    71   34  104 1    
    72   35   36 2    
    73   37   38 2    
    74   37   39 am   BACKBONE|DICT|INTERRES
    75   39   40 1    
    76   39  105 1    
    77   40   41 1    
    78   40   42 1    
    79   40  106 1    
    80   41  107 1    
    81   41  108 1    
    82   41  109 1    
    83   42   43 2    
    84   42   44 am   BACKBONE|DICT|INTERRES
    85   44   45 1    
    86   44  110 1    
    87   45   46 1    
    88   45   47 1    
    89   45  111 1    
    90   46  112 1    
    91   46  113 1    
    92   46  114 1    
    93   47   48 2    
    94   47   49 am   BACKBONE|DICT|INTERRES
    95   49   50 1    
    96   49  115 1    
    97   50   51 1    
    98   50   52 1    
    99   50  116 1    
   100   51  117 1    
   101   51  118 1    
   102   51  119 1    
   103   52   53 2    
   104   52   54 am   BACKBONE|DICT|INTERRES
   105   54   55 1    
   106   54  120 1    
   107   55   56 1    
   108   55   57 1    
   109   55  121 1    
   110   56  122 1    
   111   56  123 1    
   112   56  124 1    
   113   57   58 2    
   114   57   59 am   BACKBONE|DICT|INTERRES
   115   59   60 1    
   116   59  125 1    
   117   60   61 1    
   118   60   62 1    
   119   60  126 1    
   120   61  127 1    
   121   61  128 1    
   122   61  129 1    
   123   62   63 2    
   124   62   64 am   BACKBONE|DICT|INTERRES
   125   64   65 1    
   126   64  130 1    
   127   65   66 1    
   128   65   69 1    
   129   65  131 1    
   130   66   67 am   BACKBONE|DICT|INTERRES
   131   66   68 2    
   132   67  132 1    
   133   67  133 1    
   134   69   70 1    
   135   69  134 1    
   136   69  135 1    
   137   70   71 1    
   138   71  136 1    
   139   71  137 1    
@<TRIPOS>SUBSTRUCTURE
     1 UNK         1 GROUP             0       ****    0 ROOT    
