@<TRIPOS>MOLECULE
3R137
137   139    1
SMALL
USER_CHARGES


@<TRIPOS>ATOM
      1 CA         23.8044   -4.4254    0.1995 C.3       0 UNK        -0.2020 
      2 C          25.2810   -4.0911    0.3526 C.2       0 UNK         0.4855 
      3 O          25.7105   -3.7059    1.4408 O.2       0 UNK        -0.5197 
      4 N          26.0571   -4.2444   -0.7278 N.am      1 UNK        -0.4892 
      5 CA         27.4777   -3.8856   -0.8024 C.3       1 UNK         0.0835 
      6 C6         28.2422   -4.8292   -1.7708 C.3       12 UNK        -0.0855 
      7 S7         30.0062   -5.0129   -1.3245 S.3       12 UNK        -0.2931 
      8 C8         30.6115   -6.1301   -2.6280 C.3       12 UNK         0.0378 
      9 C9         30.6058   -5.4607   -3.9942 C.ar      12 UNK        -0.0802 
     10 C10        31.6748   -4.6515   -4.3937 C.ar      12 UNK        -0.0944 
     11 C11        31.6683   -4.0355   -5.6502 C.ar      12 UNK        -0.0787 
     12 C12        30.5784   -4.2338   -6.5049 C.ar      12 UNK        -0.0862 
     13 C13        29.4965   -5.0224   -6.1056 C.ar      12 UNK        -0.0733 
     14 C14        29.5249   -5.6498   -4.8589 C.ar      12 UNK        -0.0832 
     15 C15        28.2786   -5.1730   -7.0017 C.3       12 UNK         0.0240 
     16 S16        26.9410   -4.0608   -6.4659 S.3       12 UNK        -0.2522 
     17 C17        27.6513   -2.4347   -6.8900 C.3       12 UNK        -0.0967 
     18 CA         26.5685   -1.3269   -6.9314 C.3       5 UNK         0.0660 
     19 N          26.0145   -1.0709   -5.6006 N.am      5 UNK        -0.4015 
     20 C          24.7168   -1.1486   -5.2725 C.2       4 UNK         0.4946 
     21 O          23.8237   -1.4469   -6.0667 O.2       4 UNK        -0.5353 
     22 CA         24.3330   -0.8235   -3.8141 C.3       4 UNK         0.0277 
     23 CB         24.1488   -2.1225   -3.0140 C.3       4 UNK        -0.1981 
     24 N          25.3000    0.0404   -3.1276 N.am      4 UNK        -0.4209 
     25 C          25.5972    1.2913   -3.5133 C.2       3 UNK         0.4942 
     26 O          25.0142    1.8689   -4.4306 O.2       3 UNK        -0.5208 
     27 CA         26.7710    2.0072   -2.8199 C.3       3 UNK         0.0250 
     28 CB         26.2474    3.0177   -1.7873 C.3       3 UNK        -0.1990 
     29 N          27.7449    1.1227   -2.1762 N.am      3 UNK        -0.4232 
     30 C          28.4341    0.1315   -2.7603 C.2       2 UNK         0.4993 
     31 O          28.3126   -0.1877   -3.9447 O.2       2 UNK        -0.5286 
     32 CA         29.3826   -0.6738   -1.8519 C.3       2 UNK         0.0209 
     33 CB         29.7516    0.0476   -0.5362 C.3       2 UNK        -0.1931 
     34 N          28.8833   -2.0186   -1.5483 N.am      2 UNK        -0.4546 
     35 C          27.6600   -2.3834   -1.1366 C.2       1 UNK         0.5154 
     36 O          26.7162   -1.5959   -1.0145 O.2       1 UNK        -0.5181 
     37 C          27.0994   -0.0310   -7.5810 C.2       5 UNK         0.5014 
     38 O          27.8157   -0.1283   -8.5783 O.2       5 UNK        -0.5248 
     39 N          26.7224    1.1545   -7.0660 N.am      6 UNK        -0.4434 
     40 CA         27.1782    2.4725   -7.5425 C.3       6 UNK         0.0363 
     41 CB         26.5349    3.5843   -6.6990 C.3       6 UNK        -0.1936 
     42 C          26.9382    2.7504   -9.0392 C.2       6 UNK         0.5081 
     43 O          27.6950    3.5102   -9.6440 O.2       6 UNK        -0.5248 
     44 N          25.8982    2.1294   -9.6116 N.am      7 UNK        -0.4718 
     45 CA         25.5819    2.1843  -11.0399 C.3       7 UNK         0.0273 
     46 CB         24.1318    1.7176  -11.2479 C.3       7 UNK        -0.1935 
     47 C          26.5427    1.3564  -11.9154 C.2       7 UNK         0.5018 
     48 O          26.6421    1.6367  -13.1108 O.2       7 UNK        -0.5186 
     49 N          27.2124    0.3534  -11.3293 N.am      8 UNK        -0.4240 
     50 CA         28.1678   -0.5163  -12.0147 C.3       8 UNK         0.0235 
     51 CB         28.0754   -1.9440  -11.4480 C.3       8 UNK        -0.2000 
     52 C          29.5976    0.0269  -11.8944 C.2       8 UNK         0.4941 
     53 O          30.3057    0.0720  -12.9016 O.2       8 UNK        -0.5273 
     54 N          29.9995    0.4328  -10.6832 N.am      9 UNK        -0.4262 
     55 CA         31.3255    0.9673  -10.3773 C.3       9 UNK         0.0264 
     56 CB         32.3576   -0.1760  -10.3165 C.3       9 UNK        -0.1955 
     57 C          31.2726    1.7221   -9.0463 C.2       9 UNK         0.5031 
     58 O          30.3923    1.4565   -8.2270 O.2       9 UNK        -0.5390 
     59 N          32.2358    2.6256   -8.8257 N.am      10 UNK        -0.4204 
     60 CA         32.3695    3.4448   -7.6146 C.3       10 UNK         0.0237 
     61 CB         33.2411    4.6734   -7.9390 C.3       10 UNK        -0.1985 
     62 C          32.8978    2.6435   -6.4042 C.2       10 UNK         0.4970 
     63 O          33.9331    2.9923   -5.8337 O.2       10 UNK        -0.4914 
     64 N          32.1803    1.5748   -6.0453 N.am      11 UNK        -0.4285 
     65 CA         32.4897    0.6647   -4.9322 C.3       11 UNK         0.1007 
     66 C          32.1880    1.2484   -3.5222 C.2       11 UNK         0.5703 
     67 N          31.4703    2.3589   -3.3962 N.am      11 UNK        -0.7361 
     68 O          32.6211    0.6833   -2.5217 O.2       11 UNK        -0.4986 
     69 C69        31.8059   -0.7141   -5.1274 C.3       12 UNK        -0.0947 
     70 S70        32.3329   -1.5246   -6.6743 S.3       12 UNK        -0.2240 
     71 C71        32.8458   -3.1732   -6.0912 C.3       12 UNK         0.0194 
     72 H72        23.5631   -4.7612   -0.8089 H         1 UNK         0.0906 
     73 H73        23.5235   -5.2147    0.8962 H         1 UNK         0.0906 
     74 H74        23.1979   -3.5466    0.4169 H         1 UNK         0.0906 
     75 H75        25.6378   -4.5480   -1.5945 H         1 UNK         0.3140 
     76 H76        27.9020   -4.0208    0.1954 H         1 UNK         0.1085 
     77 H77        27.8068   -5.8298   -1.7411 H         1 UNK         0.0836 
     78 H78        28.1410   -4.4893   -2.8030 H         1 UNK         0.0836 
     79 H79        31.6261   -6.4451   -2.3793 H         1 UNK         0.0731 
     80 H80        30.0065   -7.0382   -2.6400 H         1 UNK         0.0731 
     81 H81        32.5113   -4.5037   -3.7242 H         1 UNK         0.1312 
     82 H82        30.5632   -3.7520   -7.4730 H         1 UNK         0.1406 
     83 H83        28.6885   -6.2630   -4.5513 H         1 UNK         0.1631 
     84 H84        27.9204   -6.2028   -6.9658 H         1 UNK         0.0717 
     85 H85        28.5321   -4.9729   -8.0441 H         1 UNK         0.0717 
     86 H86        28.4335   -2.1833   -6.1702 H         1 UNK         0.0934 
     87 H87        28.1461   -2.5353   -7.8577 H         1 UNK         0.0934 
     88 H88        25.7786   -1.6702   -7.6024 H         1 UNK         0.0739 
     89 H89        26.6946   -0.8043   -4.8925 H         1 UNK         0.3093 
     90 H90        23.3776   -0.2951   -3.8361 H         1 UNK         0.0818 
     91 H91        23.8671   -1.9199   -1.9805 H         1 UNK         0.0819 
     92 H92        23.3639   -2.7415   -3.4506 H         1 UNK         0.0819 
     93 H93        25.0634   -2.7156   -3.0051 H         1 UNK         0.0819 
     94 H94        25.8283   -0.3785   -2.3665 H         1 UNK         0.3041 
     95 H95        27.3118    2.5568   -3.5915 H         1 UNK         0.0784 
     96 H96        25.5425    3.7139   -2.2444 H         1 UNK         0.0793 
     97 H97        25.7293    2.5219   -0.9653 H         1 UNK         0.0793 
     98 H98        27.0579    3.6126   -1.3656 H         1 UNK         0.0793 
     99 H99        27.8875    1.2649   -1.1869 H         1 UNK         0.3024 
    100 H100       30.3000   -0.8104   -2.4245 H         1 UNK         0.1171 
    101 H101       28.9017    0.1356    0.1416 H         1 UNK         0.0786 
    102 H102       30.5356   -0.4939   -0.0064 H         1 UNK         0.0786 
    103 H103       30.1382    1.0496   -0.7278 H         1 UNK         0.0786 
    104 H104       29.5616   -2.7648   -1.6498 H         1 UNK         0.2977 
    105 H105       26.1036    1.1605   -6.2642 H         1 UNK         0.3127 
    106 H106       28.2549    2.5172   -7.3790 H         1 UNK         0.0770 
    107 H107       25.4458    3.5348   -6.7280 H         1 UNK         0.0814 
    108 H108       26.8267    4.5715   -7.0607 H         1 UNK         0.0814 
    109 H109       26.8480    3.5250   -5.6583 H         1 UNK         0.0814 
    110 H110       25.3215    1.5342   -9.0350 H         1 UNK         0.2983 
    111 H111       25.6572    3.2234  -11.3687 H         1 UNK         0.0947 
    112 H112       23.8508    1.7750  -12.3006 H         1 UNK         0.0806 
    113 H113       23.4300    2.3411  -10.6935 H         1 UNK         0.0806 
    114 H114       23.9897    0.6842  -10.9292 H         1 UNK         0.0806 
    115 H115       27.1459    0.2368  -10.3218 H         1 UNK         0.3000 
    116 H116       27.9171   -0.5674  -13.0767 H         1 UNK         0.0850 
    117 H117       28.7486   -2.6164  -11.9813 H         1 UNK         0.0810 
    118 H118       27.0675   -2.3462  -11.5505 H         1 UNK         0.0810 
    119 H119       28.3463   -1.9856  -10.3929 H         1 UNK         0.0810 
    120 H120       29.3653    0.3880   -9.8872 H         1 UNK         0.3040 
    121 H121       31.6089    1.6767  -11.1578 H         1 UNK         0.0766 
    122 H122       33.3387    0.1875  -10.0087 H         1 UNK         0.0812 
    123 H123       32.4831   -0.6529  -11.2884 H         1 UNK         0.0812 
    124 H124       32.0564   -0.9460   -9.6058 H         1 UNK         0.0812 
    125 H125       32.9487    2.7521   -9.5301 H         1 UNK         0.3205 
    126 H126       31.3777    3.8112   -7.3402 H         1 UNK         0.0754 
    127 H127       33.3248    5.3336   -7.0744 H         1 UNK         0.0769 
    128 H128       32.8117    5.2617   -8.7503 H         1 UNK         0.0769 
    129 H129       34.2525    4.3867   -8.2301 H         1 UNK         0.0769 
    130 H130       31.3657    1.3439   -6.6091 H         1 UNK         0.2981 
    131 H131       33.5679    0.4940   -4.9484 H         1 UNK         0.0541 
    132 H132       31.1148    2.8310   -4.2111 H         1 UNK         0.3459 
    133 H133       31.3038    2.7382   -2.4784 H         1 UNK         0.3459 
    134 H134       32.0267   -1.3763   -4.2883 H         1 UNK         0.0612 
    135 H135       30.7205   -0.6051   -5.1550 H         1 UNK         0.0612 
    136 H136       33.5731   -3.0557   -5.2864 H         1 UNK         0.0624 
    137 H137       33.3642   -3.6830   -6.9040 H         1 UNK         0.0624 
@<TRIPOS>BOND
     1    1    2 1    
     2    1   72 1    
     3    1   73 1    
     4    1   74 1    
     5    2    3 2    
     6    2    4 am   BACKBONE|DICT|INTERRES
     7    4    5 1    
     8    4   75 1    
     9    5    6 1    
    10    5   35 1    
    11    5   76 1    
    12    6    7 1    
    13    6   77 1    
    14    6   78 1    
    15    7    8 1    
    16    8    9 1    
    17    8   79 1    
    18    8   80 1    
    19    9   10 ar   
    20    9   14 ar   
    21   10   11 ar   
    22   10   81 1    
    23   11   12 ar   
    24   11   71 1    
    25   12   13 ar   
    26   12   82 1    
    27   13   14 ar   
    28   13   15 1    
    29   14   83 1    
    30   15   16 1    
    31   15   84 1    
    32   15   85 1    
    33   16   17 1    
    34   17   18 1    
    35   17   86 1    
    36   17   87 1    
    37   18   19 1    
    38   18   37 1    
    39   18   88 1    
    40   19   20 am   BACKBONE|DICT|INTERRES
    41   19   89 1    
    42   20   21 2    
    43   20   22 1    
    44   22   23 1    
    45   22   24 1    
    46   22   90 1    
    47   23   91 1    
    48   23   92 1    
    49   23   93 1    
    50   24   25 am   BACKBONE|DICT|INTERRES
    51   24   94 1    
    52   25   26 2    
    53   25   27 1    
    54   27   28 1    
    55   27   29 1    
    56   27   95 1    
    57   28   96 1    
    58   28   97 1    
    59   28   98 1    
    60   29   30 am   BACKBONE|DICT|INTERRES
    61   29   99 1    
    62   30   31 2    
    63   30   32 1    
    64   32   33 1    
    65   32   34 1    
    66   32  100 1    
    67   33  101 1    
    68   33  102 1    
    69   33  103 1    
    70   34   35 am   BACKBONE|DICT|INTERRES
    71   34  104 1    
    72   35   36 2    
    73   37   38 2    
    74   37   39 am   BACKBONE|DICT|INTERRES
    75   39   40 1    
    76   39  105 1    
    77   40   41 1    
    78   40   42 1    
    79   40  106 1    
    80   41  107 1    
    81   41  108 1    
    82   41  109 1    
    83   42   43 2    
    84   42   44 am   BACKBONE|DICT|INTERRES
    85   44   45 1    
    86   44  110 1    
    87   45   46 1    
    88   45   47 1    
    89   45  111 1    
    90   46  112 1    
    91   46  113 1    
    92   46  114 1    
    93   47   48 2    
    94   47   49 am   BACKBONE|DICT|INTERRES
    95   49   50 1    
    96   49  115 1    
    97   50   51 1    
    98   50   52 1    
    99   50  116 1    
   100   51  117 1    
   101   51  118 1    
   102   51  119 1    
   103   52   53 2    
   104   52   54 am   BACKBONE|DICT|INTERRES
   105   54   55 1    
   106   54  120 1    
   107   55   56 1    
   108   55   57 1    
   109   55  121 1    
   110   56  122 1    
   111   56  123 1    
   112   56  124 1    
   113   57   58 2    
   114   57   59 am   BACKBONE|DICT|INTERRES
   115   59   60 1    
   116   59  125 1    
   117   60   61 1    
   118   60   62 1    
   119   60  126 1    
   120   61  127 1    
   121   61  128 1    
   122   61  129 1    
   123   62   63 2    
   124   62   64 am   BACKBONE|DICT|INTERRES
   125   64   65 1    
   126   64  130 1    
   127   65   66 1    
   128   65   69 1    
   129   65  131 1    
   130   66   67 am   BACKBONE|DICT|INTERRES
   131   66   68 2    
   132   67  132 1    
   133   67  133 1    
   134   69   70 1    
   135   69  134 1    
   136   69  135 1    
   137   70   71 1    
   138   71  136 1    
   139   71  137 1    
@<TRIPOS>SUBSTRUCTURE
     1 UNK         1 GROUP             0       ****    0 ROOT    
