@<TRIPOS>MOLECULE
3R137
137   139    1
SMALL
USER_CHARGES


@<TRIPOS>ATOM
      1 CA         26.7834   -6.8834   -3.4203 C.3       0 UNK        -0.2020 
      2 C          26.0874   -6.1973   -2.2538 C.2       0 UNK         0.4855 
      3 O          25.0277   -6.6496   -1.8189 O.2       0 UNK        -0.5197 
      4 N          26.6778   -5.1111   -1.7431 N.am      1 UNK        -0.4892 
      5 CA         26.0981   -4.2393   -0.7173 C.3       1 UNK         0.0835 
      6 C6         27.2008   -3.4897    0.0817 C.3       12 UNK        -0.0855 
      7 S7         28.3774   -2.5552   -0.9630 S.3       12 UNK        -0.2931 
      8 C8         29.8956   -3.5456   -0.7691 C.3       12 UNK         0.0378 
      9 C9         30.7669   -3.4344   -2.0084 C.ar      12 UNK        -0.0802 
     10 C10        31.8215   -2.5168   -2.0671 C.ar      12 UNK        -0.0944 
     11 C11        32.5858   -2.3919   -3.2329 C.ar      12 UNK        -0.0787 
     12 C12        32.2950   -3.1985   -4.3370 C.ar      12 UNK        -0.0862 
     13 C13        31.2300   -4.1024   -4.2928 C.ar      12 UNK        -0.0733 
     14 C14        30.4870   -4.2345   -3.1188 C.ar      12 UNK        -0.0832 
     15 C15        30.8129   -4.8599   -5.5440 C.3       12 UNK         0.0240 
     16 S16        29.2722   -4.1724   -6.2420 S.3       12 UNK        -0.2522 
     17 C17        29.6863   -2.3960   -6.3148 C.3       12 UNK        -0.0967 
     18 CA         28.5917   -1.5400   -6.9824 C.3       5 UNK         0.0660 
     19 N          27.3134   -1.6246   -6.2725 N.am      5 UNK        -0.4015 
     20 C          26.1463   -1.1978   -6.7697 C.2       4 UNK         0.4946 
     21 O          26.0201   -0.7000   -7.8885 O.2       4 UNK        -0.5353 
     22 CA         24.9306   -1.2914   -5.8357 C.3       4 UNK         0.0277 
     23 CB         24.3683   -2.7216   -5.8134 C.3       4 UNK        -0.1981 
     24 N          25.2190   -0.8502   -4.4660 N.am      4 UNK        -0.4209 
     25 C          25.5870    0.3982   -4.1309 C.2       3 UNK         0.4942 
     26 O          25.8101    1.2748   -4.9667 O.2       3 UNK        -0.5208 
     27 CA         25.7686    0.7283   -2.6323 C.3       3 UNK         0.0250 
     28 CB         25.4355    2.2005   -2.3083 C.3       3 UNK        -0.1990 
     29 N          25.0505   -0.1824   -1.7326 N.am      3 UNK        -0.4232 
     30 C          23.7274   -0.4058   -1.6726 C.2       2 UNK         0.4993 
     31 O          22.8926    0.2565   -2.2907 O.2       2 UNK        -0.5286 
     32 CA         23.2576   -1.5940   -0.8015 C.3       2 UNK         0.0209 
     33 CB         22.0379   -2.3093   -1.4220 C.3       2 UNK        -0.1931 
     34 N          24.3048   -2.5810   -0.4775 N.am      2 UNK        -0.4546 
     35 C          25.0699   -3.2695   -1.3408 C.2       1 UNK         0.5154 
     36 O          25.0210   -3.1150   -2.5655 O.2       1 UNK        -0.5181 
     37 C          29.0838   -0.0861   -7.1299 C.2       5 UNK         0.5014 
     38 O          29.8016    0.2027   -8.0872 O.2       5 UNK        -0.5248 
     39 N          28.7158    0.8022   -6.1948 N.am      6 UNK        -0.4434 
     40 CA         29.0278    2.2314   -6.2629 C.3       6 UNK         0.0363 
     41 CB         28.9061    2.8708   -4.8710 C.3       6 UNK        -0.1936 
     42 C          28.1352    2.9440   -7.2882 C.2       6 UNK         0.5081 
     43 O          28.6427    3.7431   -8.0731 O.2       6 UNK        -0.5248 
     44 N          26.8403    2.5951   -7.3160 N.am      7 UNK        -0.4718 
     45 CA         25.8751    3.0446   -8.3254 C.3       7 UNK         0.0273 
     46 CB         24.4658    2.5718   -7.9354 C.3       7 UNK        -0.1935 
     47 C          26.2388    2.5786   -9.7475 C.2       7 UNK         0.5018 
     48 O          26.0735    3.3446  -10.6971 O.2       7 UNK        -0.5186 
     49 N          26.7739    1.3544   -9.8601 N.am      8 UNK        -0.4240 
     50 CA         27.3394    0.7911  -11.0902 C.3       8 UNK         0.0235 
     51 CB         27.4309   -0.7367  -10.9394 C.3       8 UNK        -0.2000 
     52 C          28.7179    1.3705  -11.4729 C.2       8 UNK         0.4941 
     53 O          29.1977    1.0709  -12.5669 O.2       8 UNK        -0.5273 
     54 N          29.3378    2.1579  -10.5788 N.am      9 UNK        -0.4262 
     55 CA         30.6681    2.7716  -10.6891 C.3       9 UNK         0.0264 
     56 CB         30.7112    3.8009  -11.8389 C.3       9 UNK        -0.1955 
     57 C          31.8256    1.7529  -10.7490 C.2       9 UNK         0.5031 
     58 O          32.8815    2.0599  -11.3065 O.2       9 UNK        -0.5390 
     59 N          31.6214    0.5699  -10.1562 N.am      10 UNK        -0.4204 
     60 CA         32.6409   -0.4618   -9.9702 C.3       10 UNK         0.0237 
     61 CB         31.9749   -1.8482   -9.9658 C.3       10 UNK        -0.1985 
     62 C          33.4231   -0.2214   -8.6701 C.2       10 UNK         0.4970 
     63 O          34.6477   -0.3494   -8.6694 O.2       10 UNK        -0.4914 
     64 N          32.7057    0.1401   -7.5983 N.am      11 UNK        -0.4285 
     65 CA         33.2775    0.5933   -6.3251 C.3       11 UNK         0.1007 
     66 C          33.6578    2.0956   -6.4113 C.2       11 UNK         0.5703 
     67 N          34.8191    2.4788   -5.8990 N.am      11 UNK        -0.7361 
     68 O          32.8951    2.9171   -6.9173 O.2       11 UNK        -0.4986 
     69 C69        32.3043    0.2997   -5.1546 C.3       12 UNK        -0.0947 
     70 S70        33.1003    0.3353   -3.5118 S.3       12 UNK        -0.2240 
     71 C71        33.7126   -1.3713   -3.3133 C.3       12 UNK         0.0194 
     72 H72        27.6501   -6.3220   -3.7684 H         1 UNK         0.0906 
     73 H73        27.1166   -7.8785   -3.1268 H         1 UNK         0.0906 
     74 H74        26.0942   -6.9879   -4.2579 H         1 UNK         0.0906 
     75 H75        27.5141   -4.7456   -2.1731 H         1 UNK         0.3140 
     76 H76        25.5464   -4.8653   -0.0119 H         1 UNK         0.1085 
     77 H77        26.7620   -2.7985    0.8035 H         1 UNK         0.0836 
     78 H78        27.7508   -4.2093    0.6900 H         1 UNK         0.0836 
     79 H79        29.6463   -4.5947   -0.6023 H         1 UNK         0.0731 
     80 H80        30.4366   -3.2115    0.1177 H         1 UNK         0.0731 
     81 H81        32.0337   -1.8833   -1.2166 H         1 UNK         0.1312 
     82 H82        32.8662   -3.0857   -5.2485 H         1 UNK         0.1406 
     83 H83        29.6569   -4.9257   -3.0905 H         1 UNK         0.1631 
     84 H84        30.6628   -5.9140   -5.3063 H         1 UNK         0.0717 
     85 H85        31.5976   -4.8211   -6.3013 H         1 UNK         0.0717 
     86 H86        29.8580   -2.0360   -5.2987 H         1 UNK         0.0934 
     87 H87        30.6351   -2.2966   -6.8458 H         1 UNK         0.0934 
     88 H88        28.4349   -1.9275   -7.9908 H         1 UNK         0.0739 
     89 H89        27.3284   -2.0445   -5.3545 H         1 UNK         0.3093 
     90 H90        24.1597   -0.6298   -6.2364 H         1 UNK         0.0818 
     91 H91        24.1203   -3.0603   -6.8203 H         1 UNK         0.0819 
     92 H92        25.0823   -3.4324   -5.3949 H         1 UNK         0.0819 
     93 H93        23.4567   -2.7784   -5.2181 H         1 UNK         0.0819 
     94 H94        25.0832   -1.5393   -3.7301 H         1 UNK         0.3041 
     95 H95        26.8291    0.5789   -2.4242 H         1 UNK         0.0784 
     96 H96        25.5762    2.4156   -1.2491 H         1 UNK         0.0793 
     97 H97        26.0803    2.8826   -2.8629 H         1 UNK         0.0793 
     98 H98        24.4062    2.4493   -2.5679 H         1 UNK         0.0793 
     99 H99        25.6391   -0.7931   -1.1832 H         1 UNK         0.3024 
    100 H100       22.9392   -1.1565    0.1464 H         1 UNK         0.1171 
    101 H101       21.6960   -3.1303   -0.7918 H         1 UNK         0.0786 
    102 H102       21.1965   -1.6255   -1.5410 H         1 UNK         0.0786 
    103 H103       22.2679   -2.7164   -2.4074 H         1 UNK         0.0786 
    104 H104       24.4357   -2.7521    0.5108 H         1 UNK         0.2977 
    105 H105       28.0885    0.5087   -5.4604 H         1 UNK         0.3127 
    106 H106       30.0630    2.3466   -6.5926 H         1 UNK         0.0770 
    107 H107       27.8859    2.8333   -4.4917 H         1 UNK         0.0814 
    108 H108       29.2004    3.9206   -4.9028 H         1 UNK         0.0814 
    109 H109       29.5532    2.3757   -4.1469 H         1 UNK         0.0814 
    110 H110       26.4871    1.9739   -6.5910 H         1 UNK         0.2983 
    111 H111       25.8821    4.1368   -8.3260 H         1 UNK         0.0947 
    112 H112       23.7230    2.9263   -8.6511 H         1 UNK         0.0806 
    113 H113       24.1789    2.9499   -6.9539 H         1 UNK         0.0806 
    114 H114       24.3979    1.4840   -7.9054 H         1 UNK         0.0806 
    115 H115       26.7740    0.7542   -9.0401 H         1 UNK         0.3000 
    116 H116       26.6555    1.0129  -11.9122 H         1 UNK         0.0850 
    117 H117       27.7634   -1.2030  -11.8678 H         1 UNK         0.0810 
    118 H118       26.4636   -1.1717  -10.6871 H         1 UNK         0.0810 
    119 H119       28.1403   -1.0200  -10.1622 H         1 UNK         0.0810 
    120 H120       28.8545    2.3585   -9.7112 H         1 UNK         0.3040 
    121 H121       30.8153    3.3210   -9.7580 H         1 UNK         0.0766 
    122 H122       30.6463    3.3208  -12.8157 H         1 UNK         0.0812 
    123 H123       31.6408    4.3710  -11.8194 H         1 UNK         0.0812 
    124 H124       29.8929    4.5165  -11.7603 H         1 UNK         0.0812 
    125 H125       30.7481    0.4362   -9.6502 H         1 UNK         0.3205 
    126 H126       33.3480   -0.4293  -10.8019 H         1 UNK         0.0754 
    127 H127       32.7140   -2.6363   -9.8161 H         1 UNK         0.0769 
    128 H128       31.4767   -2.0470  -10.9149 H         1 UNK         0.0769 
    129 H129       31.2304   -1.9427   -9.1753 H         1 UNK         0.0769 
    130 H130       31.7056    0.2655   -7.7094 H         1 UNK         0.2981 
    131 H131       34.1878    0.0163   -6.1496 H         1 UNK         0.0541 
    132 H132       35.0738    3.4531   -5.9385 H         1 UNK         0.3459 
    133 H133       35.4404    1.8152   -5.4636 H         1 UNK         0.3459 
    134 H134       31.8412   -0.6752   -5.2888 H         1 UNK         0.0612 
    135 H135       31.4801    1.0129   -5.1470 H         1 UNK         0.0612 
    136 H136       34.3909   -1.6063   -4.1350 H         1 UNK         0.0624 
    137 H137       34.3096   -1.4241   -2.4019 H         1 UNK         0.0624 
@<TRIPOS>BOND
     1    1    2 1    
     2    1   72 1    
     3    1   73 1    
     4    1   74 1    
     5    2    3 2    
     6    2    4 am   BACKBONE|DICT|INTERRES
     7    4    5 1    
     8    4   75 1    
     9    5    6 1    
    10    5   35 1    
    11    5   76 1    
    12    6    7 1    
    13    6   77 1    
    14    6   78 1    
    15    7    8 1    
    16    8    9 1    
    17    8   79 1    
    18    8   80 1    
    19    9   10 ar   
    20    9   14 ar   
    21   10   11 ar   
    22   10   81 1    
    23   11   12 ar   
    24   11   71 1    
    25   12   13 ar   
    26   12   82 1    
    27   13   14 ar   
    28   13   15 1    
    29   14   83 1    
    30   15   16 1    
    31   15   84 1    
    32   15   85 1    
    33   16   17 1    
    34   17   18 1    
    35   17   86 1    
    36   17   87 1    
    37   18   19 1    
    38   18   37 1    
    39   18   88 1    
    40   19   20 am   BACKBONE|DICT|INTERRES
    41   19   89 1    
    42   20   21 2    
    43   20   22 1    
    44   22   23 1    
    45   22   24 1    
    46   22   90 1    
    47   23   91 1    
    48   23   92 1    
    49   23   93 1    
    50   24   25 am   BACKBONE|DICT|INTERRES
    51   24   94 1    
    52   25   26 2    
    53   25   27 1    
    54   27   28 1    
    55   27   29 1    
    56   27   95 1    
    57   28   96 1    
    58   28   97 1    
    59   28   98 1    
    60   29   30 am   BACKBONE|DICT|INTERRES
    61   29   99 1    
    62   30   31 2    
    63   30   32 1    
    64   32   33 1    
    65   32   34 1    
    66   32  100 1    
    67   33  101 1    
    68   33  102 1    
    69   33  103 1    
    70   34   35 am   BACKBONE|DICT|INTERRES
    71   34  104 1    
    72   35   36 2    
    73   37   38 2    
    74   37   39 am   BACKBONE|DICT|INTERRES
    75   39   40 1    
    76   39  105 1    
    77   40   41 1    
    78   40   42 1    
    79   40  106 1    
    80   41  107 1    
    81   41  108 1    
    82   41  109 1    
    83   42   43 2    
    84   42   44 am   BACKBONE|DICT|INTERRES
    85   44   45 1    
    86   44  110 1    
    87   45   46 1    
    88   45   47 1    
    89   45  111 1    
    90   46  112 1    
    91   46  113 1    
    92   46  114 1    
    93   47   48 2    
    94   47   49 am   BACKBONE|DICT|INTERRES
    95   49   50 1    
    96   49  115 1    
    97   50   51 1    
    98   50   52 1    
    99   50  116 1    
   100   51  117 1    
   101   51  118 1    
   102   51  119 1    
   103   52   53 2    
   104   52   54 am   BACKBONE|DICT|INTERRES
   105   54   55 1    
   106   54  120 1    
   107   55   56 1    
   108   55   57 1    
   109   55  121 1    
   110   56  122 1    
   111   56  123 1    
   112   56  124 1    
   113   57   58 2    
   114   57   59 am   BACKBONE|DICT|INTERRES
   115   59   60 1    
   116   59  125 1    
   117   60   61 1    
   118   60   62 1    
   119   60  126 1    
   120   61  127 1    
   121   61  128 1    
   122   61  129 1    
   123   62   63 2    
   124   62   64 am   BACKBONE|DICT|INTERRES
   125   64   65 1    
   126   64  130 1    
   127   65   66 1    
   128   65   69 1    
   129   65  131 1    
   130   66   67 am   BACKBONE|DICT|INTERRES
   131   66   68 2    
   132   67  132 1    
   133   67  133 1    
   134   69   70 1    
   135   69  134 1    
   136   69  135 1    
   137   70   71 1    
   138   71  136 1    
   139   71  137 1    
@<TRIPOS>SUBSTRUCTURE
     1 UNK         1 GROUP             0       ****    0 ROOT    
