@<TRIPOS>MOLECULE
3R137
137   139    1
SMALL
USER_CHARGES


@<TRIPOS>ATOM
      1 CA         29.1787   -0.0870   -2.7514 C.3       0 UNK        -0.2020 
      2 C          29.5529   -0.1769   -1.2738 C.2       0 UNK         0.4855 
      3 O          30.1374    0.7652   -0.7427 O.2       0 UNK        -0.5197 
      4 N          29.2600   -1.2796   -0.5710 N.am      1 UNK        -0.4892 
      5 CA         28.5141   -2.4572   -1.0328 C.3       1 UNK         0.0835 
      6 C6         28.6977   -3.6722   -0.0836 C.3       12 UNK        -0.0855 
      7 S7         30.4389   -4.0648    0.3052 S.3       12 UNK        -0.2931 
      8 C8         30.8315   -5.3585   -0.9153 C.3       12 UNK         0.0378 
      9 C9         31.0039   -4.7788   -2.3112 C.ar      12 UNK        -0.0802 
     10 C10        32.1032   -3.9628   -2.5956 C.ar      12 UNK        -0.0944 
     11 C11        32.2699   -3.4111   -3.8684 C.ar      12 UNK        -0.0787 
     12 C12        31.3225   -3.6820   -4.8620 C.ar      12 UNK        -0.0862 
     13 C13        30.2297   -4.5142   -4.5963 C.ar      12 UNK        -0.0733 
     14 C14        30.0761   -5.0607   -3.3184 C.ar      12 UNK        -0.0832 
     15 C15        29.2258   -4.8425   -5.6939 C.3       12 UNK         0.0240 
     16 S16        27.5943   -4.1017   -5.3741 S.3       12 UNK        -0.2522 
     17 C17        27.9539   -2.3262   -5.5622 C.3       12 UNK        -0.0967 
     18 CA         27.1840   -1.6664   -6.7324 C.3       5 UNK         0.0660 
     19 N          25.7326   -1.8390   -6.6557 N.am      5 UNK        -0.4015 
     20 C          24.8906   -1.6422   -7.6815 C.2       4 UNK         0.4946 
     21 O          25.2562   -1.3895   -8.8295 O.2       4 UNK        -0.5353 
     22 CA         23.3829   -1.7154   -7.3778 C.3       4 UNK         0.0277 
     23 CB         22.8635   -3.1472   -7.5845 C.3       4 UNK        -0.1981 
     24 N          23.0424   -1.2651   -6.0258 N.am      4 UNK        -0.4209 
     25 C          23.1899   -0.0091   -5.5778 C.2       3 UNK         0.4942 
     26 O          23.5683    0.9286   -6.2783 O.2       3 UNK        -0.5208 
     27 CA         22.9395    0.2207   -4.0758 C.3       3 UNK         0.0250 
     28 CB         21.4523    0.5033   -3.8116 C.3       3 UNK        -0.1990 
     29 N          23.3891   -0.8991   -3.2378 N.am      3 UNK        -0.4232 
     30 C          24.6532   -1.3416   -3.1860 C.2       2 UNK         0.4993 
     31 O          25.5777   -0.8264   -3.8202 O.2       2 UNK        -0.5286 
     32 CA         24.9011   -2.6197   -2.3676 C.3       2 UNK         0.0209 
     33 CB         24.3716   -3.8494   -3.1263 C.3       2 UNK        -0.1931 
     34 N          26.3256   -2.8215   -2.0877 N.am      2 UNK        -0.4546 
     35 C          27.0109   -2.1325   -1.1671 C.2       1 UNK         0.5154 
     36 O          26.4939   -1.2997   -0.4170 O.2       1 UNK        -0.5181 
     37 C          27.5197   -0.1700   -6.8102 C.2       5 UNK         0.5014 
     38 O          28.2623    0.2353   -7.7020 O.2       5 UNK        -0.5248 
     39 N          26.9480    0.6314   -5.8982 N.am      6 UNK        -0.4434 
     40 CA         27.1265    2.0862   -5.8327 C.3       6 UNK         0.0363 
     41 CB         26.3534    2.6479   -4.6305 C.3       6 UNK        -0.1936 
     42 C          26.7255    2.8067   -7.1332 C.2       6 UNK         0.5081 
     43 O          27.4618    3.6796   -7.5928 O.2       6 UNK        -0.5248 
     44 N          25.6147    2.3742   -7.7469 N.am      7 UNK        -0.4718 
     45 CA         25.1455    2.8261   -9.0622 C.3       7 UNK         0.0273 
     46 CB         23.7603    2.2191   -9.3362 C.3       7 UNK        -0.1935 
     47 C          26.1076    2.5041  -10.2238 C.2       7 UNK         0.5018 
     48 O          26.0725    3.1997  -11.2392 O.2       7 UNK        -0.5186 
     49 N          26.9565    1.4822  -10.0525 N.am      8 UNK        -0.4240 
     50 CA         28.0082    1.0774  -10.9876 C.3       8 UNK         0.0235 
     51 CB         28.0258   -0.4603  -11.0702 C.3       8 UNK        -0.2000 
     52 C          29.3904    1.6379  -10.5906 C.2       8 UNK         0.4941 
     53 O          30.3972    1.1658  -11.1202 O.2       8 UNK        -0.5273 
     54 N          29.4239    2.6224   -9.6767 N.am      9 UNK        -0.4262 
     55 CA         30.6078    3.2868   -9.1153 C.3       9 UNK         0.0264 
     56 CB         31.4453    3.9878  -10.2073 C.3       9 UNK        -0.1955 
     57 C          31.4489    2.3816   -8.1931 C.2       9 UNK         0.5031 
     58 O          32.6591    2.5912   -8.0672 O.2       9 UNK        -0.5390 
     59 N          30.7876    1.4206   -7.5299 N.am      10 UNK        -0.4204 
     60 CA         31.3243    0.4997   -6.5273 C.3       10 UNK         0.0237 
     61 CB         31.6924    1.2716   -5.2378 C.3       10 UNK        -0.1985 
     62 C          32.4542   -0.3645   -7.1116 C.2       10 UNK         0.4970 
     63 O          32.1849   -1.1988   -7.9765 O.2       10 UNK        -0.4914 
     64 N          33.6775   -0.1482   -6.6242 N.am      11 UNK        -0.4285 
     65 CA         34.9149   -0.8053   -7.0610 C.3       11 UNK         0.1007 
     66 C          35.9328    0.2174   -7.6475 C.2       11 UNK         0.5703 
     67 N          35.5339    1.4436   -7.9744 N.am      11 UNK        -0.7361 
     68 O          37.1043   -0.1060   -7.8298 O.2       11 UNK        -0.4986 
     69 C69        35.5134   -1.6766   -5.9196 C.3       12 UNK        -0.0947 
     70 S70        34.4737   -3.1280   -5.5378 S.3       12 UNK        -0.2240 
     71 C71        33.4583   -2.5042   -4.1596 C.3       12 UNK         0.0194 
     72 H72        29.6592   -0.8801   -3.3236 H         1 UNK         0.0906 
     73 H73        29.5051    0.8659   -3.1649 H         1 UNK         0.0906 
     74 H74        28.0999   -0.1423   -2.8897 H         1 UNK         0.0906 
     75 H75        29.5257   -1.3099    0.4026 H         1 UNK         0.3140 
     76 H76        28.8965   -2.7350   -2.0165 H         1 UNK         0.1085 
     77 H77        28.2189   -4.5599   -0.5018 H         1 UNK         0.0836 
     78 H78        28.1959   -3.4869    0.8686 H         1 UNK         0.0836 
     79 H79        31.7596   -5.8497   -0.6191 H         1 UNK         0.0731 
     80 H80        30.0603   -6.1302   -0.8974 H         1 UNK         0.0731 
     81 H81        32.8222   -3.7495   -1.8161 H         1 UNK         0.1312 
     82 H82        31.4496   -3.2560   -5.8484 H         1 UNK         0.1406 
     83 H83        29.2304   -5.7028   -3.1115 H         1 UNK         0.1631 
     84 H84        29.1128   -5.9254   -5.7615 H         1 UNK         0.0717 
     85 H85        29.5867   -4.5120   -6.6693 H         1 UNK         0.0717 
     86 H86        27.7224   -1.8470   -4.6130 H         1 UNK         0.0934 
     87 H87        29.0263   -2.1871   -5.7056 H         1 UNK         0.0934 
     88 H88        27.5287   -2.1297   -7.6598 H         1 UNK         0.0739 
     89 H89        25.3557   -1.9937   -5.7321 H         1 UNK         0.3093 
     90 H90        22.8736   -1.0590   -8.0868 H         1 UNK         0.0818 
     91 H91        23.0829   -3.4986   -8.5939 H         1 UNK         0.0819 
     92 H92        23.3230   -3.8503   -6.8884 H         1 UNK         0.0819 
     93 H93        21.7825   -3.2008   -7.4537 H         1 UNK         0.0819 
     94 H94        22.7094   -1.9664   -5.3810 H         1 UNK         0.3041 
     95 H95        23.5115    1.1022   -3.7796 H         1 UNK         0.0784 
     96 H96        21.1037    1.3451   -4.4120 H         1 UNK         0.0793 
     97 H97        20.8252   -0.3544   -4.0581 H         1 UNK         0.0793 
     98 H98        21.2765    0.7596   -2.7666 H         1 UNK         0.0793 
     99 H99        22.6802   -1.3721   -2.6951 H         1 UNK         0.3024 
    100 H100       24.3664   -2.5298   -1.4189 H         1 UNK         0.1171 
    101 H101       23.2952   -3.7827   -3.2890 H         1 UNK         0.0786 
    102 H102       24.8420   -3.9592   -4.1039 H         1 UNK         0.0786 
    103 H103       24.5512   -4.7673   -2.5660 H         1 UNK         0.0786 
    104 H104       26.8108   -3.4736   -2.6871 H         1 UNK         0.2977 
    105 H105       26.3583    0.2079   -5.1838 H         1 UNK         0.3127 
    106 H106       28.1900    2.2729   -5.6694 H         1 UNK         0.0770 
    107 H107       25.2787    2.5018   -4.7390 H         1 UNK         0.0814 
    108 H108       26.5270    3.7193   -4.5227 H         1 UNK         0.0814 
    109 H109       26.6642    2.1725   -3.6998 H         1 UNK         0.0814 
    110 H110       25.0303    1.6931   -7.2668 H         1 UNK         0.2983 
    111 H111       25.0431    3.9125   -9.0204 H         1 UNK         0.0947 
    112 H112       23.7976    1.1291   -9.3567 H         1 UNK         0.0806 
    113 H113       23.3684    2.5521  -10.2983 H         1 UNK         0.0806 
    114 H114       23.0397    2.5146   -8.5734 H         1 UNK         0.0806 
    115 H115       26.9447    0.9840   -9.1695 H         1 UNK         0.3000 
    116 H116       27.7841    1.4636  -11.9839 H         1 UNK         0.0850 
    117 H117       28.7292   -0.8063  -11.8285 H         1 UNK         0.0810 
    118 H118       27.0446   -0.8543  -11.3358 H         1 UNK         0.0810 
    119 H119       28.3199   -0.9123  -10.1224 H         1 UNK         0.0810 
    120 H120       28.5430    2.9207   -9.2714 H         1 UNK         0.3040 
    121 H121       30.2146    4.0699   -8.4653 H         1 UNK         0.0766 
    122 H122       31.9575    3.2715  -10.8500 H         1 UNK         0.0812 
    123 H123       32.2112    4.6237   -9.7618 H         1 UNK         0.0812 
    124 H124       30.8246    4.6240  -10.8380 H         1 UNK         0.0812 
    125 H125       29.8121    1.2513   -7.7683 H         1 UNK         0.3205 
    126 H126       30.5201   -0.1907   -6.2732 H         1 UNK         0.0754 
    127 H127       31.9904    0.5939   -4.4375 H         1 UNK         0.0769 
    128 H128       30.8369    1.8386   -4.8718 H         1 UNK         0.0769 
    129 H129       32.5024    1.9851   -5.3929 H         1 UNK         0.0769 
    130 H130       33.7978    0.5936   -5.9504 H         1 UNK         0.2981 
    131 H131       34.6961   -1.4692   -7.8990 H         1 UNK         0.0541 
    132 H132       36.2058    2.0891   -8.3578 H         1 UNK         0.3459 
    133 H133       34.5615    1.7215   -7.8959 H         1 UNK         0.3459 
    134 H134       35.6724   -1.0845   -5.0167 H         1 UNK         0.0612 
    135 H135       36.4928   -2.0649   -6.2039 H         1 UNK         0.0612 
    136 H136       34.0943   -2.3972   -3.2795 H         1 UNK         0.0624 
    137 H137       33.0822   -1.5096   -4.3887 H         1 UNK         0.0624 
@<TRIPOS>BOND
     1    1    2 1    
     2    1   72 1    
     3    1   73 1    
     4    1   74 1    
     5    2    3 2    
     6    2    4 am   BACKBONE|DICT|INTERRES
     7    4    5 1    
     8    4   75 1    
     9    5    6 1    
    10    5   35 1    
    11    5   76 1    
    12    6    7 1    
    13    6   77 1    
    14    6   78 1    
    15    7    8 1    
    16    8    9 1    
    17    8   79 1    
    18    8   80 1    
    19    9   10 ar   
    20    9   14 ar   
    21   10   11 ar   
    22   10   81 1    
    23   11   12 ar   
    24   11   71 1    
    25   12   13 ar   
    26   12   82 1    
    27   13   14 ar   
    28   13   15 1    
    29   14   83 1    
    30   15   16 1    
    31   15   84 1    
    32   15   85 1    
    33   16   17 1    
    34   17   18 1    
    35   17   86 1    
    36   17   87 1    
    37   18   19 1    
    38   18   37 1    
    39   18   88 1    
    40   19   20 am   BACKBONE|DICT|INTERRES
    41   19   89 1    
    42   20   21 2    
    43   20   22 1    
    44   22   23 1    
    45   22   24 1    
    46   22   90 1    
    47   23   91 1    
    48   23   92 1    
    49   23   93 1    
    50   24   25 am   BACKBONE|DICT|INTERRES
    51   24   94 1    
    52   25   26 2    
    53   25   27 1    
    54   27   28 1    
    55   27   29 1    
    56   27   95 1    
    57   28   96 1    
    58   28   97 1    
    59   28   98 1    
    60   29   30 am   BACKBONE|DICT|INTERRES
    61   29   99 1    
    62   30   31 2    
    63   30   32 1    
    64   32   33 1    
    65   32   34 1    
    66   32  100 1    
    67   33  101 1    
    68   33  102 1    
    69   33  103 1    
    70   34   35 am   BACKBONE|DICT|INTERRES
    71   34  104 1    
    72   35   36 2    
    73   37   38 2    
    74   37   39 am   BACKBONE|DICT|INTERRES
    75   39   40 1    
    76   39  105 1    
    77   40   41 1    
    78   40   42 1    
    79   40  106 1    
    80   41  107 1    
    81   41  108 1    
    82   41  109 1    
    83   42   43 2    
    84   42   44 am   BACKBONE|DICT|INTERRES
    85   44   45 1    
    86   44  110 1    
    87   45   46 1    
    88   45   47 1    
    89   45  111 1    
    90   46  112 1    
    91   46  113 1    
    92   46  114 1    
    93   47   48 2    
    94   47   49 am   BACKBONE|DICT|INTERRES
    95   49   50 1    
    96   49  115 1    
    97   50   51 1    
    98   50   52 1    
    99   50  116 1    
   100   51  117 1    
   101   51  118 1    
   102   51  119 1    
   103   52   53 2    
   104   52   54 am   BACKBONE|DICT|INTERRES
   105   54   55 1    
   106   54  120 1    
   107   55   56 1    
   108   55   57 1    
   109   55  121 1    
   110   56  122 1    
   111   56  123 1    
   112   56  124 1    
   113   57   58 2    
   114   57   59 am   BACKBONE|DICT|INTERRES
   115   59   60 1    
   116   59  125 1    
   117   60   61 1    
   118   60   62 1    
   119   60  126 1    
   120   61  127 1    
   121   61  128 1    
   122   61  129 1    
   123   62   63 2    
   124   62   64 am   BACKBONE|DICT|INTERRES
   125   64   65 1    
   126   64  130 1    
   127   65   66 1    
   128   65   69 1    
   129   65  131 1    
   130   66   67 am   BACKBONE|DICT|INTERRES
   131   66   68 2    
   132   67  132 1    
   133   67  133 1    
   134   69   70 1    
   135   69  134 1    
   136   69  135 1    
   137   70   71 1    
   138   71  136 1    
   139   71  137 1    
@<TRIPOS>SUBSTRUCTURE
     1 UNK         1 GROUP             0       ****    0 ROOT    
