@<TRIPOS>MOLECULE
3R137
137   139    1
SMALL
USER_CHARGES


@<TRIPOS>ATOM
      1 CA         26.4753   -8.0667   -3.7558 C.3       0 UNK        -0.2020 
      2 C          26.2888   -6.8542   -2.8561 C.2       0 UNK         0.4855 
      3 O          25.3640   -6.8306   -2.0429 O.2       0 UNK        -0.5197 
      4 N          27.1665   -5.8529   -2.9879 N.am      1 UNK        -0.4892 
      5 CA         27.1010   -4.5705   -2.2810 C.3       1 UNK         0.0835 
      6 C6         28.4623   -3.8210   -2.2950 C.3       12 UNK        -0.0855 
      7 S7         29.3771   -3.8905   -3.8786 S.3       12 UNK        -0.2931 
      8 C8         31.0834   -3.5140   -3.3545 C.3       12 UNK         0.0378 
      9 C9         31.3069   -2.0129   -3.2588 C.ar      12 UNK        -0.0802 
     10 C10        31.8925   -1.3139   -4.3179 C.ar      12 UNK        -0.0944 
     11 C11        32.0300    0.0758   -4.2667 C.ar      12 UNK        -0.0787 
     12 C12        31.5993    0.7687   -3.1321 C.ar      12 UNK        -0.0862 
     13 C13        31.0009    0.0786   -2.0726 C.ar      12 UNK        -0.0733 
     14 C14        30.8858   -1.3125   -2.1280 C.ar      12 UNK        -0.0832 
     15 C15        30.3907    0.8367   -0.9058 C.3       12 UNK         0.0240 
     16 S16        28.8913    1.7484   -1.4062 S.3       12 UNK        -0.2522 
     17 C17        27.9173    0.5104   -2.3462 C.3       12 UNK        -0.0967 
     18 CA         28.0370    0.6749   -3.8888 C.3       5 UNK         0.0660 
     19 N          27.3981   -0.4098   -4.6390 N.am      5 UNK        -0.4015 
     20 C          27.7642   -0.7932   -5.8746 C.2       4 UNK         0.4946 
     21 O          28.8107   -0.4441   -6.4223 O.2       4 UNK        -0.5353 
     22 CA         26.7856   -1.6658   -6.6844 C.3       4 UNK         0.0277 
     23 CB         27.3042   -3.0980   -6.8651 C.3       4 UNK        -0.1981 
     24 N          25.4342   -1.7016   -6.1269 N.am      4 UNK        -0.4209 
     25 C          24.5447   -0.7084   -6.2691 C.2       3 UNK         0.4942 
     26 O          24.7714    0.3228   -6.9009 O.2       3 UNK        -0.5208 
     27 CA         23.1992   -0.8570   -5.5380 C.3       3 UNK         0.0250 
     28 CB         22.1726   -1.5567   -6.4420 C.3       3 UNK        -0.1990 
     29 N          23.2947   -1.5713   -4.2620 N.am      3 UNK        -0.4232 
     30 C          24.0862   -1.2255   -3.2370 C.2       2 UNK         0.4993 
     31 O          24.8261   -0.2403   -3.2534 O.2       2 UNK        -0.5286 
     32 CA         24.0934   -2.1482   -2.0049 C.3       2 UNK         0.0209 
     33 CB         22.8833   -3.1083   -1.9402 C.3       2 UNK        -0.1931 
     34 N          25.3418   -2.9137   -1.8672 N.am      2 UNK        -0.4546 
     35 C          25.9234   -3.7040   -2.7854 C.2       1 UNK         0.5154 
     36 O          25.5563   -3.7805   -3.9622 O.2       1 UNK        -0.5181 
     37 C          27.4593    2.0195   -4.3642 C.2       5 UNK         0.5014 
     38 O          28.2280    2.9122   -4.7199 O.2       5 UNK        -0.5248 
     39 N          26.1210    2.1316   -4.3828 N.am      6 UNK        -0.4434 
     40 CA         25.3801    3.3509   -4.7279 C.3       6 UNK         0.0363 
     41 CB         23.8724    3.1040   -4.5638 C.3       6 UNK        -0.1936 
     42 C          25.6912    3.8969   -6.1327 C.2       6 UNK         0.5081 
     43 O          25.9113    5.0994   -6.2793 O.2       6 UNK        -0.5248 
     44 N          25.7341    3.0051   -7.1309 N.am      7 UNK        -0.4718 
     45 CA         26.1294    3.3242   -8.5064 C.3       7 UNK         0.0273 
     46 CB         25.4153    2.3518   -9.4612 C.3       7 UNK        -0.1935 
     47 C          27.6531    3.2594   -8.7245 C.2       7 UNK         0.5018 
     48 O          28.1151    3.6380   -9.8010 O.2       7 UNK        -0.5186 
     49 N          28.3945    2.7382   -7.7333 N.am      8 UNK        -0.4240 
     50 CA         29.8321    2.4288   -7.7359 C.3       8 UNK         0.0235 
     51 CB         30.6743    3.7189   -7.8060 C.3       8 UNK        -0.2000 
     52 C          30.2507    1.3926   -8.8013 C.2       8 UNK         0.4941 
     53 O          31.4318    1.3090   -9.1384 O.2       8 UNK        -0.5273 
     54 N          29.2855    0.6073   -9.3009 N.am      9 UNK        -0.4262 
     55 CA         29.4300   -0.3445  -10.4047 C.3       9 UNK         0.0264 
     56 CB         28.0442   -0.9020  -10.7694 C.3       9 UNK        -0.1955 
     57 C          30.4178   -1.4923  -10.1386 C.2       9 UNK         0.5031 
     58 O          30.9723   -2.0338  -11.0961 O.2       9 UNK        -0.5390 
     59 N          30.6238   -1.8437   -8.8625 N.am      10 UNK        -0.4204 
     60 CA         31.5929   -2.8595   -8.4443 C.3       10 UNK         0.0237 
     61 CB         31.0972   -3.5354   -7.1547 C.3       10 UNK        -0.1985 
     62 C          33.0329   -2.3250   -8.3038 C.2       10 UNK         0.4970 
     63 O          33.9440   -3.1393   -8.1465 O.2       10 UNK        -0.4914 
     64 N          33.2296   -1.0009   -8.3642 N.am      11 UNK        -0.4285 
     65 CA         34.5488   -0.3498   -8.3468 C.3       11 UNK         0.1007 
     66 C          35.0514   -0.0501   -9.7853 C.2       11 UNK         0.5703 
     67 N          36.3415    0.2163   -9.9428 N.am      11 UNK        -0.7361 
     68 O          34.2983   -0.0450  -10.7577 O.2       11 UNK        -0.4986 
     69 C69        34.5429    0.9285   -7.4652 C.3       12 UNK        -0.0947 
     70 S70        34.3497    0.5282   -5.6972 S.3       12 UNK        -0.2240 
     71 C71        32.5719    0.8220   -5.4739 C.3       12 UNK         0.0194 
     72 H72        27.3377   -7.9576   -4.4134 H         1 UNK         0.0906 
     73 H73        26.6195   -8.9632   -3.1534 H         1 UNK         0.0906 
     74 H74        25.5918   -8.2114   -4.3771 H         1 UNK         0.0906 
     75 H75        27.8910   -5.9038   -3.6912 H         1 UNK         0.3140 
     76 H76        26.8800   -4.8053   -1.2368 H         1 UNK         0.1085 
     77 H77        28.3362   -2.7794   -2.0015 H         1 UNK         0.0836 
     78 H78        29.1012   -4.2627   -1.5287 H         1 UNK         0.0836 
     79 H79        31.7747   -3.9479   -4.0783 H         1 UNK         0.0731 
     80 H80        31.3048   -3.9952   -2.4008 H         1 UNK         0.0731 
     81 H81        32.2283   -1.8434   -5.1969 H         1 UNK         0.1312 
     82 H82        31.6695    1.8474   -3.0969 H         1 UNK         0.1406 
     83 H83        30.4205   -1.8467   -1.3116 H         1 UNK         0.1631 
     84 H84        31.1210    1.5410   -0.5052 H         1 UNK         0.0717 
     85 H85        30.1368    0.1586   -0.0896 H         1 UNK         0.0717 
     86 H86        28.2287   -0.4892   -2.0504 H         1 UNK         0.0934 
     87 H87        26.8802    0.5956   -2.0213 H         1 UNK         0.0934 
     88 H88        29.0970    0.6706   -4.1430 H         1 UNK         0.0739 
     89 H89        26.5016   -0.7184   -4.2817 H         1 UNK         0.3093 
     90 H90        26.7265   -1.2175   -7.6781 H         1 UNK         0.0818 
     91 H91        27.3712   -3.6287   -5.9169 H         1 UNK         0.0819 
     92 H92        26.6536   -3.6739   -7.5231 H         1 UNK         0.0819 
     93 H93        28.2949   -3.0957   -7.3160 H         1 UNK         0.0819 
     94 H94        25.2065   -2.4961   -5.5355 H         1 UNK         0.3041 
     95 H95        22.8308    0.1462   -5.3199 H         1 UNK         0.0784 
     96 H96        22.0671   -1.0302   -7.3919 H         1 UNK         0.0793 
     97 H97        22.4661   -2.5826   -6.6686 H         1 UNK         0.0793 
     98 H98        21.1865   -1.5830   -5.9779 H         1 UNK         0.0793 
     99 H99        22.7456   -2.4139   -4.1721 H         1 UNK         0.3024 
    100 H100       24.0333   -1.4842   -1.1406 H         1 UNK         0.1171 
    101 H101       22.8627   -3.6416   -0.9896 H         1 UNK         0.0786 
    102 H102       22.9063   -3.8590   -2.7312 H         1 UNK         0.0786 
    103 H103       21.9398   -2.5658   -2.0176 H         1 UNK         0.0786 
    104 H104       25.7512   -2.8865   -0.9435 H         1 UNK         0.2977 
    105 H105       25.5694    1.3435   -4.0524 H         1 UNK         0.3127 
    106 H106       25.6769    4.1157   -4.0072 H         1 UNK         0.0770 
    107 H107       23.5036    2.3769   -5.2866 H         1 UNK         0.0814 
    108 H108       23.3099    4.0259   -4.7172 H         1 UNK         0.0814 
    109 H109       23.6323    2.7394   -3.5648 H         1 UNK         0.0814 
    110 H110       25.4778    2.0366   -6.9424 H         1 UNK         0.2983 
    111 H111       25.8078    4.3391   -8.7507 H         1 UNK         0.0947 
    112 H112       25.6388    2.5882  -10.5025 H         1 UNK         0.0806 
    113 H113       24.3328    2.4044   -9.3432 H         1 UNK         0.0806 
    114 H114       25.7190    1.3186   -9.2889 H         1 UNK         0.0806 
    115 H115       27.9203    2.5299   -6.8635 H         1 UNK         0.3000 
    116 H116       30.0326    1.9610   -6.7712 H         1 UNK         0.0850 
    117 H117       31.7340    3.5037   -7.6633 H         1 UNK         0.0810 
    118 H118       30.3812    4.4238   -7.0280 H         1 UNK         0.0810 
    119 H119       30.5708    4.2175   -8.7700 H         1 UNK         0.0810 
    120 H120       28.3588    0.7212   -8.9198 H         1 UNK         0.3040 
    121 H121       29.8107    0.2142  -11.2623 H         1 UNK         0.0766 
    122 H122       27.3510   -0.1045  -11.0379 H         1 UNK         0.0812 
    123 H123       27.6066   -1.4688   -9.9472 H         1 UNK         0.0812 
    124 H124       28.1088   -1.5734  -11.6269 H         1 UNK         0.0812 
    125 H125       30.1279   -1.3430   -8.1334 H         1 UNK         0.3205 
    126 H126       31.6430   -3.6376   -9.2093 H         1 UNK         0.0754 
    127 H127       31.8952   -4.0757   -6.6435 H         1 UNK         0.0769 
    128 H128       30.3192   -4.2655   -7.3758 H         1 UNK         0.0769 
    129 H129       30.6771   -2.8159   -6.4532 H         1 UNK         0.0769 
    130 H130       32.4551   -0.3886   -8.5960 H         1 UNK         0.2981 
    131 H131       35.2773   -1.0380   -7.9137 H         1 UNK         0.0541 
    132 H132       36.6897    0.4178  -10.8671 H         1 UNK         0.3459 
    133 H133       36.9744    0.2170   -9.1580 H         1 UNK         0.3459 
    134 H134       33.7642    1.6241   -7.7824 H         1 UNK         0.0612 
    135 H135       35.4860    1.4690   -7.5616 H         1 UNK         0.0612 
    136 H136       32.0279    0.4867   -6.3570 H         1 UNK         0.0624 
    137 H137       32.3928    1.8949   -5.3891 H         1 UNK         0.0624 
@<TRIPOS>BOND
     1    1    2 1    
     2    1   72 1    
     3    1   73 1    
     4    1   74 1    
     5    2    3 2    
     6    2    4 am   BACKBONE|DICT|INTERRES
     7    4    5 1    
     8    4   75 1    
     9    5    6 1    
    10    5   35 1    
    11    5   76 1    
    12    6    7 1    
    13    6   77 1    
    14    6   78 1    
    15    7    8 1    
    16    8    9 1    
    17    8   79 1    
    18    8   80 1    
    19    9   10 ar   
    20    9   14 ar   
    21   10   11 ar   
    22   10   81 1    
    23   11   12 ar   
    24   11   71 1    
    25   12   13 ar   
    26   12   82 1    
    27   13   14 ar   
    28   13   15 1    
    29   14   83 1    
    30   15   16 1    
    31   15   84 1    
    32   15   85 1    
    33   16   17 1    
    34   17   18 1    
    35   17   86 1    
    36   17   87 1    
    37   18   19 1    
    38   18   37 1    
    39   18   88 1    
    40   19   20 am   BACKBONE|DICT|INTERRES
    41   19   89 1    
    42   20   21 2    
    43   20   22 1    
    44   22   23 1    
    45   22   24 1    
    46   22   90 1    
    47   23   91 1    
    48   23   92 1    
    49   23   93 1    
    50   24   25 am   BACKBONE|DICT|INTERRES
    51   24   94 1    
    52   25   26 2    
    53   25   27 1    
    54   27   28 1    
    55   27   29 1    
    56   27   95 1    
    57   28   96 1    
    58   28   97 1    
    59   28   98 1    
    60   29   30 am   BACKBONE|DICT|INTERRES
    61   29   99 1    
    62   30   31 2    
    63   30   32 1    
    64   32   33 1    
    65   32   34 1    
    66   32  100 1    
    67   33  101 1    
    68   33  102 1    
    69   33  103 1    
    70   34   35 am   BACKBONE|DICT|INTERRES
    71   34  104 1    
    72   35   36 2    
    73   37   38 2    
    74   37   39 am   BACKBONE|DICT|INTERRES
    75   39   40 1    
    76   39  105 1    
    77   40   41 1    
    78   40   42 1    
    79   40  106 1    
    80   41  107 1    
    81   41  108 1    
    82   41  109 1    
    83   42   43 2    
    84   42   44 am   BACKBONE|DICT|INTERRES
    85   44   45 1    
    86   44  110 1    
    87   45   46 1    
    88   45   47 1    
    89   45  111 1    
    90   46  112 1    
    91   46  113 1    
    92   46  114 1    
    93   47   48 2    
    94   47   49 am   BACKBONE|DICT|INTERRES
    95   49   50 1    
    96   49  115 1    
    97   50   51 1    
    98   50   52 1    
    99   50  116 1    
   100   51  117 1    
   101   51  118 1    
   102   51  119 1    
   103   52   53 2    
   104   52   54 am   BACKBONE|DICT|INTERRES
   105   54   55 1    
   106   54  120 1    
   107   55   56 1    
   108   55   57 1    
   109   55  121 1    
   110   56  122 1    
   111   56  123 1    
   112   56  124 1    
   113   57   58 2    
   114   57   59 am   BACKBONE|DICT|INTERRES
   115   59   60 1    
   116   59  125 1    
   117   60   61 1    
   118   60   62 1    
   119   60  126 1    
   120   61  127 1    
   121   61  128 1    
   122   61  129 1    
   123   62   63 2    
   124   62   64 am   BACKBONE|DICT|INTERRES
   125   64   65 1    
   126   64  130 1    
   127   65   66 1    
   128   65   69 1    
   129   65  131 1    
   130   66   67 am   BACKBONE|DICT|INTERRES
   131   66   68 2    
   132   67  132 1    
   133   67  133 1    
   134   69   70 1    
   135   69  134 1    
   136   69  135 1    
   137   70   71 1    
   138   71  136 1    
   139   71  137 1    
@<TRIPOS>SUBSTRUCTURE
     1 UNK         1 GROUP             0       ****    0 ROOT    
