@<TRIPOS>MOLECULE
3R137
137   139    1
SMALL
USER_CHARGES


@<TRIPOS>ATOM
      1 CA         26.6038   -6.2907   -6.1474 C.3       0 UNK        -0.2020 
      2 C          26.4496   -5.5634   -4.8209 C.2       0 UNK         0.4855 
      3 O          25.3447   -5.1406   -4.4795 O.2       0 UNK        -0.5197 
      4 N          27.5493   -5.4124   -4.0703 N.am      1 UNK        -0.4892 
      5 CA         27.5865   -4.7474   -2.7630 C.3       1 UNK         0.0835 
      6 C6         28.9646   -4.9225   -2.0801 C.3       12 UNK        -0.0855 
      7 S7         28.9525   -4.4043   -0.3238 S.3       12 UNK        -0.2931 
      8 C8         30.6797   -3.9022   -0.0248 C.3       12 UNK         0.0378 
      9 C9         31.1654   -2.8361   -0.9984 C.ar      12 UNK        -0.0802 
     10 C10        32.0882   -3.1761   -1.9902 C.ar      12 UNK        -0.0944 
     11 C11        32.5365   -2.2219   -2.9049 C.ar      12 UNK        -0.0787 
     12 C12        32.0598   -0.9080   -2.8120 C.ar      12 UNK        -0.0862 
     13 C13        31.1450   -0.5461   -1.8148 C.ar      12 UNK        -0.0733 
     14 C14        30.7004   -1.5196   -0.9120 C.ar      12 UNK        -0.0832 
     15 C15        30.6710    0.8997   -1.6670 C.3       12 UNK         0.0240 
     16 S16        30.1771    1.6970   -3.2339 S.3       12 UNK        -0.2522 
     17 C17        28.6111    0.8455   -3.6033 C.3       12 UNK        -0.0967 
     18 CA         28.2106    0.9946   -5.0946 C.3       5 UNK         0.0660 
     19 N          27.5964   -0.2250   -5.6185 N.am      5 UNK        -0.4015 
     20 C          27.3575   -0.4674   -6.9138 C.2       4 UNK         0.4946 
     21 O          27.7133    0.2752   -7.8317 O.2       4 UNK        -0.5353 
     22 CA         26.5849   -1.7530   -7.2407 C.3       4 UNK         0.0277 
     23 CB         27.5528   -2.9376   -7.3823 C.3       4 UNK        -0.1981 
     24 N          25.5535   -2.0513   -6.2406 N.am      4 UNK        -0.4209 
     25 C          24.4527   -1.3053   -6.0592 C.2       3 UNK         0.4942 
     26 O          24.1647   -0.3319   -6.7539 O.2       3 UNK        -0.5208 
     27 CA         23.5523   -1.6667   -4.8674 C.3       3 UNK         0.0250 
     28 CB         22.6583   -2.8726   -5.1962 C.3       3 UNK        -0.1990 
     29 N          24.3216   -1.9252   -3.6477 N.am      3 UNK        -0.4232 
     30 C          25.0306   -0.9901   -2.9964 C.2       2 UNK         0.4993 
     31 O          25.0778    0.1896   -3.3361 O.2       2 UNK        -0.5286 
     32 CA         25.8704   -1.4382   -1.7909 C.3       2 UNK         0.0209 
     33 CB         25.0689   -1.2861   -0.4889 C.3       2 UNK        -0.1931 
     34 N          26.3759   -2.8069   -1.8961 N.am      2 UNK        -0.4546 
     35 C          27.1760   -3.2625   -2.8697 C.2       1 UNK         0.5154 
     36 O          27.5688   -2.5727   -3.8161 O.2       1 UNK        -0.5181 
     37 C          27.3354    2.2373   -5.3682 C.2       5 UNK         0.5014 
     38 O          27.8329    3.2145   -5.9288 O.2       5 UNK        -0.5248 
     39 N          26.0376    2.1591   -5.0349 N.am      6 UNK        -0.4434 
     40 CA         25.0333    3.1982   -5.2923 C.3       6 UNK         0.0363 
     41 CB         23.7109    2.8187   -4.6078 C.3       6 UNK        -0.1936 
     42 C          24.8004    3.4728   -6.7879 C.2       6 UNK         0.5081 
     43 O          24.5755    4.6240   -7.1615 O.2       6 UNK        -0.5248 
     44 N          24.8939    2.4272   -7.6214 N.am      7 UNK        -0.4718 
     45 CA         24.8435    2.5132   -9.0851 C.3       7 UNK         0.0273 
     46 CB         24.5766    1.1117   -9.6595 C.3       7 UNK        -0.1935 
     47 C          26.1104    3.1205   -9.7215 C.2       7 UNK         0.5018 
     48 O          26.1130    3.3441  -10.9325 O.2       7 UNK        -0.5186 
     49 N          27.1592    3.3545   -8.9168 N.am      8 UNK        -0.4240 
     50 CA         28.4777    3.8829   -9.2852 C.3       8 UNK         0.0235 
     51 CB         28.3722    5.2985   -9.8928 C.3       8 UNK        -0.2000 
     52 C          29.3181    2.9215  -10.1478 C.2       8 UNK         0.4941 
     53 O          30.2912    3.3588  -10.7646 O.2       8 UNK        -0.5273 
     54 N          28.9654    1.6282  -10.1471 N.am      9 UNK        -0.4262 
     55 CA         29.7917    0.5505  -10.6932 C.3       9 UNK         0.0264 
     56 CB         28.9073   -0.6599  -11.0367 C.3       9 UNK        -0.1955 
     57 C          30.8869    0.1695   -9.6856 C.2       9 UNK         0.5031 
     58 O          32.0472    0.0154  -10.0724 O.2       9 UNK        -0.5390 
     59 N          30.4860    0.0756   -8.4079 N.am      10 UNK        -0.4204 
     60 CA         31.3066   -0.1602   -7.2200 C.3       10 UNK         0.0237 
     61 CB         32.0299    1.1452   -6.8166 C.3       10 UNK        -0.1985 
     62 C          32.2229   -1.3884   -7.3615 C.2       10 UNK         0.4970 
     63 O          31.7320   -2.4693   -7.6917 O.2       10 UNK        -0.4914 
     64 N          33.5149   -1.2098   -7.0725 N.am      11 UNK        -0.4285 
     65 CA         34.5298   -2.2711   -7.0312 C.3       11 UNK         0.1007 
     66 C          35.2114   -2.5477   -8.4032 C.2       11 UNK         0.5703 
     67 N          34.8089   -1.9020   -9.4925 N.am      11 UNK        -0.7361 
     68 O          36.1166   -3.3747   -8.4848 O.2       11 UNK        -0.4986 
     69 C69        35.5662   -2.0175   -5.8970 C.3       12 UNK        -0.0947 
     70 S70        34.8737   -1.4991   -4.2792 S.3       12 UNK        -0.2240 
     71 C71        33.4779   -2.6482   -4.0250 C.3       12 UNK         0.0194 
     72 H72        25.9653   -5.8371   -6.9048 H         1 UNK         0.0906 
     73 H73        27.6317   -6.2596   -6.5082 H         1 UNK         0.0906 
     74 H74        26.3083   -7.3337   -6.0380 H         1 UNK         0.0906 
     75 H75        28.4350   -5.7534   -4.4157 H         1 UNK         0.3140 
     76 H76        26.8429   -5.2571   -2.1458 H         1 UNK         0.1085 
     77 H77        29.2653   -5.9711   -2.1073 H         1 UNK         0.0836 
     78 H78        29.7232   -4.3775   -2.6416 H         1 UNK         0.0836 
     79 H79        31.3158   -4.7876   -0.0719 H         1 UNK         0.0731 
     80 H80        30.7649   -3.5231    0.9946 H         1 UNK         0.0731 
     81 H81        32.4415   -4.1957   -2.0639 H         1 UNK         0.1312 
     82 H82        32.4024   -0.1637   -3.5173 H         1 UNK         0.1406 
     83 H83        29.9937   -1.2573   -0.1361 H         1 UNK         0.1631 
     84 H84        31.4835    1.4801   -1.2284 H         1 UNK         0.0717 
     85 H85        29.8365    0.9650   -0.9669 H         1 UNK         0.0717 
     86 H86        28.7595   -0.2073   -3.3574 H         1 UNK         0.0934 
     87 H87        27.8301    1.2015   -2.9285 H         1 UNK         0.0934 
     88 H88        29.1209    1.1372   -5.6779 H         1 UNK         0.0739 
     89 H89        27.3463   -0.9404   -4.9423 H         1 UNK         0.3093 
     90 H90        26.0910   -1.6026   -8.2027 H         1 UNK         0.0818 
     91 H91        27.0390   -3.8220   -7.7564 H         1 UNK         0.0819 
     92 H92        28.3513   -2.7091   -8.0902 H         1 UNK         0.0819 
     93 H93        28.0266   -3.1940   -6.4340 H         1 UNK         0.0819 
     94 H94        25.7337   -2.8128   -5.5998 H         1 UNK         0.3041 
     95 H95        22.9029   -0.8098   -4.6747 H         1 UNK         0.0784 
     96 H96        22.0515   -2.6756   -6.0810 H         1 UNK         0.0793 
     97 H97        23.2419   -3.7714   -5.3966 H         1 UNK         0.0793 
     98 H98        21.9732   -3.0933   -4.3775 H         1 UNK         0.0793 
     99 H99        24.3649   -2.8819   -3.3242 H         1 UNK         0.3024 
    100 H100       26.7364   -0.7755   -1.7369 H         1 UNK         0.1171 
    101 H101       25.6842   -1.5047    0.3841 H         1 UNK         0.0786 
    102 H102       24.7003   -0.2654   -0.3751 H         1 UNK         0.0786 
    103 H103       24.2035   -1.9496   -0.4663 H         1 UNK         0.0786 
    104 H104       26.1203   -3.4371   -1.1490 H         1 UNK         0.2977 
    105 H105       25.7049    1.3352   -4.5326 H         1 UNK         0.3127 
    106 H106       25.3970    4.1243   -4.8423 H         1 UNK         0.0770 
    107 H107       23.8374    2.7168   -3.5299 H         1 UNK         0.0814 
    108 H108       23.3183    1.8749   -4.9889 H         1 UNK         0.0814 
    109 H109       22.9496    3.5820   -4.7743 H         1 UNK         0.0814 
    110 H110       24.9939    1.4974   -7.2256 H         1 UNK         0.2983 
    111 H111       24.0072    3.1596   -9.3598 H         1 UNK         0.0947 
    112 H112       25.3841    0.4196   -9.4202 H         1 UNK         0.0806 
    113 H113       24.4845    1.1419  -10.7460 H         1 UNK         0.0806 
    114 H114       23.6487    0.6929   -9.2699 H         1 UNK         0.0806 
    115 H115       27.0578    3.1227   -7.9346 H         1 UNK         0.3000 
    116 H116       29.0228    3.9769   -8.3448 H         1 UNK         0.0850 
    117 H117       27.7776    5.9579   -9.2606 H         1 UNK         0.0810 
    118 H118       27.9193    5.2833  -10.8843 H         1 UNK         0.0810 
    119 H119       29.3579    5.7537   -9.9960 H         1 UNK         0.0810 
    120 H120       28.1834    1.3496   -9.5644 H         1 UNK         0.3040 
    121 H121       30.2740    0.8934  -11.6113 H         1 UNK         0.0766 
    122 H122       29.5060   -1.4734  -11.4487 H         1 UNK         0.0812 
    123 H123       28.1562   -0.3998  -11.7827 H         1 UNK         0.0812 
    124 H124       28.3863   -1.0496  -10.1617 H         1 UNK         0.0812 
    125 H125       29.4897    0.1881   -8.2295 H         1 UNK         0.3205 
    126 H126       30.6172   -0.4180   -6.4160 H         1 UNK         0.0754 
    127 H127       32.5554    1.0357   -5.8668 H         1 UNK         0.0769 
    128 H128       31.3170    1.9597   -6.6853 H         1 UNK         0.0769 
    129 H129       32.7512    1.4628   -7.5709 H         1 UNK         0.0769 
    130 H130       33.8366   -0.2844   -6.8317 H         1 UNK         0.2981 
    131 H131       34.0285   -3.2108   -6.7955 H         1 UNK         0.0541 
    132 H132       35.2573   -2.0955  -10.3738 H         1 UNK         0.3459 
    133 H133       34.0416   -1.2457   -9.4505 H         1 UNK         0.3459 
    134 H134       36.1640   -2.9152   -5.7306 H         1 UNK         0.0612 
    135 H135       36.2698   -1.2414   -6.2033 H         1 UNK         0.0612 
    136 H136       33.8873   -3.6413   -3.8342 H         1 UNK         0.0624 
    137 H137       32.8702   -2.7346   -4.9217 H         1 UNK         0.0624 
@<TRIPOS>BOND
     1    1    2 1    
     2    1   72 1    
     3    1   73 1    
     4    1   74 1    
     5    2    3 2    
     6    2    4 am   BACKBONE|DICT|INTERRES
     7    4    5 1    
     8    4   75 1    
     9    5    6 1    
    10    5   35 1    
    11    5   76 1    
    12    6    7 1    
    13    6   77 1    
    14    6   78 1    
    15    7    8 1    
    16    8    9 1    
    17    8   79 1    
    18    8   80 1    
    19    9   10 ar   
    20    9   14 ar   
    21   10   11 ar   
    22   10   81 1    
    23   11   12 ar   
    24   11   71 1    
    25   12   13 ar   
    26   12   82 1    
    27   13   14 ar   
    28   13   15 1    
    29   14   83 1    
    30   15   16 1    
    31   15   84 1    
    32   15   85 1    
    33   16   17 1    
    34   17   18 1    
    35   17   86 1    
    36   17   87 1    
    37   18   19 1    
    38   18   37 1    
    39   18   88 1    
    40   19   20 am   BACKBONE|DICT|INTERRES
    41   19   89 1    
    42   20   21 2    
    43   20   22 1    
    44   22   23 1    
    45   22   24 1    
    46   22   90 1    
    47   23   91 1    
    48   23   92 1    
    49   23   93 1    
    50   24   25 am   BACKBONE|DICT|INTERRES
    51   24   94 1    
    52   25   26 2    
    53   25   27 1    
    54   27   28 1    
    55   27   29 1    
    56   27   95 1    
    57   28   96 1    
    58   28   97 1    
    59   28   98 1    
    60   29   30 am   BACKBONE|DICT|INTERRES
    61   29   99 1    
    62   30   31 2    
    63   30   32 1    
    64   32   33 1    
    65   32   34 1    
    66   32  100 1    
    67   33  101 1    
    68   33  102 1    
    69   33  103 1    
    70   34   35 am   BACKBONE|DICT|INTERRES
    71   34  104 1    
    72   35   36 2    
    73   37   38 2    
    74   37   39 am   BACKBONE|DICT|INTERRES
    75   39   40 1    
    76   39  105 1    
    77   40   41 1    
    78   40   42 1    
    79   40  106 1    
    80   41  107 1    
    81   41  108 1    
    82   41  109 1    
    83   42   43 2    
    84   42   44 am   BACKBONE|DICT|INTERRES
    85   44   45 1    
    86   44  110 1    
    87   45   46 1    
    88   45   47 1    
    89   45  111 1    
    90   46  112 1    
    91   46  113 1    
    92   46  114 1    
    93   47   48 2    
    94   47   49 am   BACKBONE|DICT|INTERRES
    95   49   50 1    
    96   49  115 1    
    97   50   51 1    
    98   50   52 1    
    99   50  116 1    
   100   51  117 1    
   101   51  118 1    
   102   51  119 1    
   103   52   53 2    
   104   52   54 am   BACKBONE|DICT|INTERRES
   105   54   55 1    
   106   54  120 1    
   107   55   56 1    
   108   55   57 1    
   109   55  121 1    
   110   56  122 1    
   111   56  123 1    
   112   56  124 1    
   113   57   58 2    
   114   57   59 am   BACKBONE|DICT|INTERRES
   115   59   60 1    
   116   59  125 1    
   117   60   61 1    
   118   60   62 1    
   119   60  126 1    
   120   61  127 1    
   121   61  128 1    
   122   61  129 1    
   123   62   63 2    
   124   62   64 am   BACKBONE|DICT|INTERRES
   125   64   65 1    
   126   64  130 1    
   127   65   66 1    
   128   65   69 1    
   129   65  131 1    
   130   66   67 am   BACKBONE|DICT|INTERRES
   131   66   68 2    
   132   67  132 1    
   133   67  133 1    
   134   69   70 1    
   135   69  134 1    
   136   69  135 1    
   137   70   71 1    
   138   71  136 1    
   139   71  137 1    
@<TRIPOS>SUBSTRUCTURE
     1 UNK         1 GROUP             0       ****    0 ROOT    
