@<TRIPOS>MOLECULE
3R137
137   139    1
SMALL
USER_CHARGES


@<TRIPOS>ATOM
      1 CA         29.2711   -6.0230   -4.6982 C.3       0 UNK        -0.2020 
      2 C          28.3799   -5.8566   -3.4772 C.2       0 UNK         0.4855 
      3 O          27.8400   -6.8415   -2.9728 O.2       0 UNK        -0.5197 
      4 N          28.2148   -4.6186   -3.0046 N.am      1 UNK        -0.4892 
      5 CA         27.3501   -4.2391   -1.8908 C.3       1 UNK         0.0835 
      6 C6         27.9995   -4.5268   -0.5059 C.3       12 UNK        -0.0855 
      7 S7         29.2171   -3.3202    0.1310 S.3       12 UNK        -0.2931 
      8 C8         30.7432   -3.7266   -0.7928 C.3       12 UNK         0.0378 
      9 C9         30.9094   -2.9067   -2.0708 C.ar      12 UNK        -0.0802 
     10 C10        31.3983   -3.5054   -3.2370 C.ar      12 UNK        -0.0944 
     11 C11        31.5403   -2.7595   -4.4119 C.ar      12 UNK        -0.0787 
     12 C12        31.1791   -1.4088   -4.4204 C.ar      12 UNK        -0.0862 
     13 C13        30.6977   -0.7928   -3.2630 C.ar      12 UNK        -0.0733 
     14 C14        30.5960   -1.5434   -2.0879 C.ar      12 UNK        -0.0832 
     15 C15        30.2836    0.6755   -3.2868 C.3       12 UNK         0.0240 
     16 S16        28.6671    0.9270   -2.4777 S.3       12 UNK        -0.2522 
     17 C17        27.8153    2.1573   -3.5168 C.3       12 UNK        -0.0967 
     18 CA         27.6328    1.7820   -5.0132 C.3       5 UNK         0.0660 
     19 N          27.3509    0.3614   -5.2524 N.am      5 UNK        -0.4015 
     20 C          27.2883   -0.2016   -6.4696 C.2       4 UNK         0.4946 
     21 O          27.4983    0.4074   -7.5176 O.2       4 UNK        -0.5353 
     22 CA         26.8383   -1.6665   -6.5422 C.3       4 UNK         0.0277 
     23 CB         28.0109   -2.6255   -6.2807 C.3       4 UNK        -0.1981 
     24 N          25.7397   -1.9261   -5.6100 N.am      4 UNK        -0.4209 
     25 C          24.4903   -1.4674   -5.7883 C.2       3 UNK         0.4942 
     26 O          24.1310   -0.8446   -6.7866 O.2       3 UNK        -0.5208 
     27 CA         23.4728   -1.7073   -4.6586 C.3       3 UNK         0.0250 
     28 CB         22.7187   -3.0267   -4.8869 C.3       3 UNK        -0.1990 
     29 N          24.0744   -1.7151   -3.3244 N.am      3 UNK        -0.4232 
     30 C          24.6820   -0.6673   -2.7490 C.2       2 UNK         0.4993 
     31 O          24.7485    0.4518   -3.2603 O.2       2 UNK        -0.5286 
     32 CA         25.3850   -0.9381   -1.4046 C.3       2 UNK         0.0209 
     33 CB         24.4225   -0.6879   -0.2332 C.3       2 UNK        -0.1931 
     34 N          25.9599   -2.2891   -1.2908 N.am      2 UNK        -0.4546 
     35 C          26.8802   -2.7901   -2.1285 C.2       1 UNK         0.5154 
     36 O          27.3093   -2.1650   -3.1028 O.2       1 UNK        -0.5181 
     37 C          26.5599    2.6833   -5.6557 C.2       5 UNK         0.5014 
     38 O          26.9084    3.6480   -6.3366 O.2       5 UNK        -0.5248 
     39 N          25.2799    2.3256   -5.4647 N.am      6 UNK        -0.4434 
     40 CA         24.1215    2.9975   -6.0638 C.3       6 UNK         0.0363 
     41 CB         22.8283    2.3925   -5.4960 C.3       6 UNK        -0.1936 
     42 C          24.1119    2.9489   -7.6035 C.2       6 UNK         0.5081 
     43 O          23.7106    3.9253   -8.2366 O.2       6 UNK        -0.5248 
     44 N          24.5826    1.8340   -8.1782 N.am      7 UNK        -0.4718 
     45 CA         24.7682    1.6439   -9.6203 C.3       7 UNK         0.0273 
     46 CB         24.7872    0.1351   -9.9196 C.3       7 UNK        -0.1935 
     47 C          26.0386    2.3177  -10.1792 C.2       7 UNK         0.5018 
     48 O          26.2309    2.2946  -11.3956 O.2       7 UNK        -0.5186 
     49 N          26.8853    2.8775   -9.3004 N.am      8 UNK        -0.4240 
     50 CA         28.2013    3.4709   -9.5699 C.3       8 UNK         0.0235 
     51 CB         28.0851    4.7095  -10.4840 C.3       8 UNK        -0.2000 
     52 C          29.2457    2.4499  -10.0671 C.2       8 UNK         0.4941 
     53 O          30.1979    2.8295  -10.7519 O.2       8 UNK        -0.5273 
     54 N          29.0794    1.1775   -9.6861 N.am      9 UNK        -0.4262 
     55 CA         30.0170    0.0881   -9.9336 C.3       9 UNK         0.0264 
     56 CB         29.2222   -1.2083  -10.1774 C.3       9 UNK        -0.1955 
     57 C          30.9445   -0.0100   -8.7160 C.2       9 UNK         0.5031 
     58 O          30.7294   -0.8480   -7.8423 O.2       9 UNK        -0.5390 
     59 N          31.9299    0.8944   -8.6544 N.am      10 UNK        -0.4204 
     60 CA         32.8290    1.0862   -7.5108 C.3       10 UNK         0.0237 
     61 CB         33.6089    2.3969   -7.7094 C.3       10 UNK        -0.1985 
     62 C          33.7975   -0.0791   -7.2252 C.2       10 UNK         0.4970 
     63 O          34.3446   -0.1198   -6.1239 O.2       10 UNK        -0.4914 
     64 N          34.0081   -0.9640   -8.2124 N.am      11 UNK        -0.4285 
     65 CA         34.8651   -2.1679   -8.1951 C.3       11 UNK         0.1007 
     66 C          36.3621   -1.9676   -7.7981 C.2       11 UNK         0.5703 
     67 N          36.9016   -0.7556   -7.8491 N.am      11 UNK        -0.7361 
     68 O          37.0645   -2.9282   -7.4904 O.2       11 UNK        -0.4986 
     69 C69        34.1843   -3.4158   -7.5512 C.3       12 UNK        -0.0947 
     70 S70        33.8885   -3.3217   -5.7508 S.3       12 UNK        -0.2240 
     71 C71        32.0732   -3.4044   -5.6814 C.3       12 UNK         0.0194 
     72 H72        30.2046   -6.5108   -4.4195 H         1 UNK         0.0906 
     73 H73        28.7734   -6.6390   -5.4467 H         1 UNK         0.0906 
     74 H74        29.5074   -5.0642   -5.1574 H         1 UNK         0.0906 
     75 H75        28.6443   -3.8190   -3.4565 H         1 UNK         0.3140 
     76 H76        26.4476   -4.8504   -1.9652 H         1 UNK         0.1085 
     77 H77        28.4540   -5.5188   -0.5008 H         1 UNK         0.0836 
     78 H78        27.2077   -4.5844    0.2425 H         1 UNK         0.0836 
     79 H79        30.7611   -4.7956   -1.0108 H         1 UNK         0.0731 
     80 H80        31.6005   -3.5286   -0.1485 H         1 UNK         0.0731 
     81 H81        31.6702   -4.5520   -3.2327 H         1 UNK         0.1312 
     82 H82        31.2755   -0.8383   -5.3333 H         1 UNK         0.1406 
     83 H83        30.2348   -1.0673   -1.1870 H         1 UNK         0.1631 
     84 H84        30.2525    1.0394   -4.3132 H         1 UNK         0.0717 
     85 H85        31.0374    1.2702   -2.7698 H         1 UNK         0.0717 
     86 H86        26.8462    2.3212   -3.0402 H         1 UNK         0.0934 
     87 H87        28.3476    3.1068   -3.4337 H         1 UNK         0.0934 
     88 H88        28.5701    1.9989   -5.5291 H         1 UNK         0.0739 
     89 H89        27.1927   -0.2132   -4.4333 H         1 UNK         0.3093 
     90 H90        26.4738   -1.8557   -7.5542 H         1 UNK         0.0818 
     91 H91        28.5113   -2.4158   -5.3361 H         1 UNK         0.0819 
     92 H92        27.6816   -3.6641   -6.2699 H         1 UNK         0.0819 
     93 H93        28.7650   -2.5327   -7.0627 H         1 UNK         0.0819 
     94 H94        25.9904   -2.3512   -4.7258 H         1 UNK         0.3041 
     95 H95        22.7490   -0.8904   -4.6898 H         1 UNK         0.0784 
     96 H96        22.2392   -3.0360   -5.8670 H         1 UNK         0.0793 
     97 H97        23.3864   -3.8881   -4.8429 H         1 UNK         0.0793 
     98 H98        21.9340   -3.1698   -4.1438 H         1 UNK         0.0793 
     99 H99        24.0644   -2.5916   -2.8239 H         1 UNK         0.3024 
    100 H100       26.2080   -0.2253   -1.3271 H         1 UNK         0.1171 
    101 H101       23.5910   -1.3937   -0.2335 H         1 UNK         0.0786 
    102 H102       23.9984    0.3161   -0.2854 H         1 UNK         0.0786 
    103 H103       24.9348   -0.7706    0.7256 H         1 UNK         0.0786 
    104 H104       25.6497   -2.8501   -0.5103 H         1 UNK         0.2977 
    105 H105       25.0844    1.5473   -4.8385 H         1 UNK         0.3127 
    106 H106       24.1652    4.0479   -5.7685 H         1 UNK         0.0770 
    107 H107       22.7223    1.3423   -5.7684 H         1 UNK         0.0814 
    108 H108       21.9521    2.9179   -5.8781 H         1 UNK         0.0814 
    109 H109       22.8002    2.4613   -4.4083 H         1 UNK         0.0814 
    110 H110       24.8378    1.0519   -7.5851 H         1 UNK         0.2983 
    111 H111       23.9155    2.0841  -10.1418 H         1 UNK         0.0947 
    112 H112       24.8674   -0.0533  -10.9910 H         1 UNK         0.0806 
    113 H113       23.8741   -0.3499   -9.5740 H         1 UNK         0.0806 
    114 H114       25.6315   -0.3591   -9.4379 H         1 UNK         0.0806 
    115 H115       26.6349    2.8304   -8.3191 H         1 UNK         0.3000 
    116 H116       28.5692    3.8161   -8.6026 H         1 UNK         0.0850 
    117 H117       29.0356    5.2410  -10.5441 H         1 UNK         0.0810 
    118 H118       27.3451    5.4141  -10.1045 H         1 UNK         0.0810 
    119 H119       27.8021    4.4389  -11.5015 H         1 UNK         0.0810 
    120 H120       28.3364    0.9651   -9.0194 H         1 UNK         0.3040 
    121 H121       30.6199    0.2905  -10.8215 H         1 UNK         0.0766 
    122 H122       28.5969   -1.1254  -11.0663 H         1 UNK         0.0812 
    123 H123       28.5718   -1.4507   -9.3363 H         1 UNK         0.0812 
    124 H124       29.8931   -2.0550  -10.3269 H         1 UNK         0.0812 
    125 H125       32.0043    1.5645   -9.4087 H         1 UNK         0.3205 
    126 H126       32.2039    1.1979   -6.6222 H         1 UNK         0.0754 
    127 H127       34.2353    2.3630   -8.6017 H         1 UNK         0.0769 
    128 H128       34.2627    2.5976   -6.8593 H         1 UNK         0.0769 
    129 H129       32.9356    3.2494   -7.8032 H         1 UNK         0.0769 
    130 H130       33.5215   -0.8028   -9.0810 H         1 UNK         0.2981 
    131 H131       34.9474   -2.4171   -9.2535 H         1 UNK         0.0541 
    132 H132       36.3407    0.0430   -8.0967 H         1 UNK         0.3459 
    133 H133       37.8727   -0.6375   -7.6074 H         1 UNK         0.3459 
    134 H134       33.2398   -3.6074   -8.0617 H         1 UNK         0.0612 
    135 H135       34.7861   -4.3069   -7.7374 H         1 UNK         0.0612 
    136 H136       31.7639   -4.4481   -5.7423 H         1 UNK         0.0624 
    137 H137       31.6441   -2.9050   -6.5499 H         1 UNK         0.0624 
@<TRIPOS>BOND
     1    1    2 1    
     2    1   72 1    
     3    1   73 1    
     4    1   74 1    
     5    2    3 2    
     6    2    4 am   BACKBONE|DICT|INTERRES
     7    4    5 1    
     8    4   75 1    
     9    5    6 1    
    10    5   35 1    
    11    5   76 1    
    12    6    7 1    
    13    6   77 1    
    14    6   78 1    
    15    7    8 1    
    16    8    9 1    
    17    8   79 1    
    18    8   80 1    
    19    9   10 ar   
    20    9   14 ar   
    21   10   11 ar   
    22   10   81 1    
    23   11   12 ar   
    24   11   71 1    
    25   12   13 ar   
    26   12   82 1    
    27   13   14 ar   
    28   13   15 1    
    29   14   83 1    
    30   15   16 1    
    31   15   84 1    
    32   15   85 1    
    33   16   17 1    
    34   17   18 1    
    35   17   86 1    
    36   17   87 1    
    37   18   19 1    
    38   18   37 1    
    39   18   88 1    
    40   19   20 am   BACKBONE|DICT|INTERRES
    41   19   89 1    
    42   20   21 2    
    43   20   22 1    
    44   22   23 1    
    45   22   24 1    
    46   22   90 1    
    47   23   91 1    
    48   23   92 1    
    49   23   93 1    
    50   24   25 am   BACKBONE|DICT|INTERRES
    51   24   94 1    
    52   25   26 2    
    53   25   27 1    
    54   27   28 1    
    55   27   29 1    
    56   27   95 1    
    57   28   96 1    
    58   28   97 1    
    59   28   98 1    
    60   29   30 am   BACKBONE|DICT|INTERRES
    61   29   99 1    
    62   30   31 2    
    63   30   32 1    
    64   32   33 1    
    65   32   34 1    
    66   32  100 1    
    67   33  101 1    
    68   33  102 1    
    69   33  103 1    
    70   34   35 am   BACKBONE|DICT|INTERRES
    71   34  104 1    
    72   35   36 2    
    73   37   38 2    
    74   37   39 am   BACKBONE|DICT|INTERRES
    75   39   40 1    
    76   39  105 1    
    77   40   41 1    
    78   40   42 1    
    79   40  106 1    
    80   41  107 1    
    81   41  108 1    
    82   41  109 1    
    83   42   43 2    
    84   42   44 am   BACKBONE|DICT|INTERRES
    85   44   45 1    
    86   44  110 1    
    87   45   46 1    
    88   45   47 1    
    89   45  111 1    
    90   46  112 1    
    91   46  113 1    
    92   46  114 1    
    93   47   48 2    
    94   47   49 am   BACKBONE|DICT|INTERRES
    95   49   50 1    
    96   49  115 1    
    97   50   51 1    
    98   50   52 1    
    99   50  116 1    
   100   51  117 1    
   101   51  118 1    
   102   51  119 1    
   103   52   53 2    
   104   52   54 am   BACKBONE|DICT|INTERRES
   105   54   55 1    
   106   54  120 1    
   107   55   56 1    
   108   55   57 1    
   109   55  121 1    
   110   56  122 1    
   111   56  123 1    
   112   56  124 1    
   113   57   58 2    
   114   57   59 am   BACKBONE|DICT|INTERRES
   115   59   60 1    
   116   59  125 1    
   117   60   61 1    
   118   60   62 1    
   119   60  126 1    
   120   61  127 1    
   121   61  128 1    
   122   61  129 1    
   123   62   63 2    
   124   62   64 am   BACKBONE|DICT|INTERRES
   125   64   65 1    
   126   64  130 1    
   127   65   66 1    
   128   65   69 1    
   129   65  131 1    
   130   66   67 am   BACKBONE|DICT|INTERRES
   131   66   68 2    
   132   67  132 1    
   133   67  133 1    
   134   69   70 1    
   135   69  134 1    
   136   69  135 1    
   137   70   71 1    
   138   71  136 1    
   139   71  137 1    
@<TRIPOS>SUBSTRUCTURE
     1 UNK         1 GROUP             0       ****    0 ROOT    
