@<TRIPOS>MOLECULE
3R137
137   139    1
SMALL
USER_CHARGES


@<TRIPOS>ATOM
      1 CA         27.3031   -6.8851   -2.1732 C.3       0 UNK        -0.2020 
      2 C          27.1611   -5.6756   -1.2612 C.2       0 UNK         0.4855 
      3 O          27.1280   -5.8301   -0.0405 O.2       0 UNK        -0.5197 
      4 N          27.0833   -4.4780   -1.8499 N.am      1 UNK        -0.4892 
      5 CA         26.8655   -3.2038   -1.1649 C.3       1 UNK         0.0835 
      6 C6         28.0059   -2.1893   -1.4427 C.3       12 UNK        -0.0855 
      7 S7         29.4628   -2.4381   -0.3709 S.3       12 UNK        -0.2931 
      8 C8         30.4244   -3.7390   -1.2142 C.3       12 UNK         0.0378 
      9 C9         30.7887   -3.3814   -2.6478 C.ar      12 UNK        -0.0802 
     10 C10        31.7712   -2.4213   -2.9089 C.ar      12 UNK        -0.0944 
     11 C11        32.1299   -2.1136   -4.2245 C.ar      12 UNK        -0.0787 
     12 C12        31.4773   -2.7609   -5.2782 C.ar      12 UNK        -0.0862 
     13 C13        30.4773   -3.7097   -5.0369 C.ar      12 UNK        -0.0733 
     14 C14        30.1595   -4.0330   -3.7132 C.ar      12 UNK        -0.0832 
     15 C15        29.8032   -4.3896   -6.2309 C.3       12 UNK         0.0240 
     16 S16        28.1002   -5.0145   -5.9707 S.3       12 UNK        -0.2522 
     17 C17        27.1589   -3.5834   -5.3395 C.3       12 UNK        -0.0967 
     18 CA         26.7251   -2.5496   -6.4103 C.3       5 UNK         0.0660 
     19 N          25.4633   -1.8883   -6.0528 N.am      5 UNK        -0.4015 
     20 C          24.7935   -1.0547   -6.8649 C.2       4 UNK         0.4946 
     21 O          25.1418   -0.7886   -8.0157 O.2       4 UNK        -0.5353 
     22 CA         23.5419   -0.3704   -6.2939 C.3       4 UNK         0.0277 
     23 CB         22.3260   -1.3058   -6.3855 C.3       4 UNK        -0.1981 
     24 N          23.6871    0.1043   -4.9159 N.am      4 UNK        -0.4209 
     25 C          24.6093    0.9608   -4.4593 C.2       3 UNK         0.4942 
     26 O          25.5223    1.4097   -5.1494 O.2       3 UNK        -0.5208 
     27 CA         24.5177    1.3874   -2.9818 C.3       3 UNK         0.0250 
     28 CB         23.5019    2.5315   -2.7998 C.3       3 UNK        -0.1990 
     29 N          24.2705    0.2852   -2.0401 N.am      3 UNK        -0.4232 
     30 C          23.1999   -0.5175   -1.9366 C.2       2 UNK         0.4993 
     31 O          22.1791   -0.3868   -2.6150 O.2       2 UNK        -0.5286 
     32 CA         23.3097   -1.6884   -0.9388 C.3       2 UNK         0.0209 
     33 CB         22.3758   -2.8607   -1.3112 C.3       2 UNK        -0.1931 
     34 N          24.6826   -2.1816   -0.7358 N.am      2 UNK        -0.4546 
     35 C          25.5190   -2.6618   -1.6700 C.2       1 UNK         0.5154 
     36 O          25.2803   -2.6684   -2.8823 O.2       1 UNK        -0.5181 
     37 C          27.8331   -1.5091   -6.6523 C.2       5 UNK         0.5014 
     38 O          28.5003   -1.5499   -7.6859 O.2       5 UNK        -0.5248 
     39 N          27.9783   -0.5745   -5.7027 N.am      6 UNK        -0.4434 
     40 CA         28.9869    0.4796   -5.7371 C.3       6 UNK         0.0363 
     41 CB         29.0502    1.1866   -4.3746 C.3       6 UNK        -0.1936 
     42 C          28.7688    1.4807   -6.8794 C.2       6 UNK         0.5081 
     43 O          29.7370    1.8671   -7.5337 O.2       6 UNK        -0.5248 
     44 N          27.5040    1.8466   -7.1259 N.am      7 UNK        -0.4718 
     45 CA         27.0801    2.6989   -8.2376 C.3       7 UNK         0.0273 
     46 CB         25.5890    3.0378   -8.0834 C.3       7 UNK        -0.1935 
     47 C          27.3549    2.0696   -9.6133 C.2       7 UNK         0.5018 
     48 O          27.7728    2.7838  -10.5253 O.2       7 UNK        -0.5186 
     49 N          27.1344    0.7523   -9.7352 N.am      8 UNK        -0.4240 
     50 CA         27.4446   -0.0220  -10.9377 C.3       8 UNK         0.0235 
     51 CB         26.7420   -1.3880  -10.8733 C.3       8 UNK        -0.2000 
     52 C          28.9575   -0.1951  -11.1502 C.2       8 UNK         0.4941 
     53 O          29.4290   -0.0326  -12.2765 O.2       8 UNK        -0.5273 
     54 N          29.6856   -0.5302  -10.0759 N.am      9 UNK        -0.4262 
     55 CA         31.1293   -0.7715  -10.0987 C.3       9 UNK         0.0264 
     56 CB         31.5468   -1.4880   -8.8073 C.3       9 UNK        -0.1955 
     57 C          31.9729    0.4984  -10.2859 C.2       9 UNK         0.5031 
     58 O          33.0013    0.4252  -10.9601 O.2       9 UNK        -0.5390 
     59 N          31.5437    1.6123   -9.6704 N.am      10 UNK        -0.4204 
     60 CA         32.2556    2.8895   -9.5437 C.3       10 UNK         0.0237 
     61 CB         32.4487    3.5683  -10.9169 C.3       10 UNK        -0.1985 
     62 C          33.5681    2.7014   -8.7603 C.2       10 UNK         0.4970 
     63 O          34.6541    2.7992   -9.3348 O.2       10 UNK        -0.4914 
     64 N          33.4245    2.3823   -7.4662 N.am      11 UNK        -0.4285 
     65 CA         34.5090    2.0017   -6.5401 C.3       11 UNK         0.1007 
     66 C          35.6497    3.0468   -6.3588 C.2       11 UNK         0.5703 
     67 N          35.4193    4.3298   -6.6119 N.am      11 UNK        -0.7361 
     68 O          36.7598    2.6837   -5.9768 O.2       11 UNK        -0.4986 
     69 C69        33.9669    1.5832   -5.1445 C.3       12 UNK        -0.0947 
     70 S70        32.5513    0.4364   -5.2022 S.3       12 UNK        -0.2240 
     71 C71        33.2321   -1.0986   -4.5081 C.3       12 UNK         0.0194 
     72 H72        28.2404   -7.4013   -1.9675 H         1 UNK         0.0906 
     73 H73        26.4847   -7.5835   -2.0001 H         1 UNK         0.0906 
     74 H74        27.2935   -6.6079   -3.2273 H         1 UNK         0.0906 
     75 H75        27.0112   -4.4257   -2.8554 H         1 UNK         0.3140 
     76 H76        26.7851   -3.3578   -0.0863 H         1 UNK         0.1085 
     77 H77        28.3034   -2.1890   -2.4909 H         1 UNK         0.0836 
     78 H78        27.6672   -1.1708   -1.2414 H         1 UNK         0.0836 
     79 H79        31.3411   -3.9122   -0.6487 H         1 UNK         0.0731 
     80 H80        29.8735   -4.6783   -1.1757 H         1 UNK         0.0731 
     81 H81        32.2628   -1.9236   -2.0840 H         1 UNK         0.1312 
     82 H82        31.7579   -2.5250   -6.2933 H         1 UNK         0.1406 
     83 H83        29.4192   -4.7921   -3.5079 H         1 UNK         0.1631 
     84 H84        30.4259   -5.2333   -6.5305 H         1 UNK         0.0717 
     85 H85        29.7897   -3.7152   -7.0859 H         1 UNK         0.0717 
     86 H86        27.6903   -3.1128   -4.5136 H         1 UNK         0.0934 
     87 H87        26.2655   -4.0228   -4.8940 H         1 UNK         0.0934 
     88 H88        26.5498   -3.0742   -7.3523 H         1 UNK         0.0739 
     89 H89        25.1157   -2.0429   -5.1138 H         1 UNK         0.3093 
     90 H90        23.3429    0.5064   -6.9133 H         1 UNK         0.0818 
     91 H91        21.4092   -0.7932   -6.0937 H         1 UNK         0.0819 
     92 H92        22.1843   -1.6651   -7.4059 H         1 UNK         0.0819 
     93 H93        22.4391   -2.1799   -5.7427 H         1 UNK         0.0819 
     94 H94        22.9821   -0.1970   -4.2454 H         1 UNK         0.3041 
     95 H95        25.4999    1.7824   -2.7163 H         1 UNK         0.0784 
     96 H96        23.7558    3.3800   -3.4367 H         1 UNK         0.0793 
     97 H97        22.4878    2.2261   -3.0591 H         1 UNK         0.0793 
     98 H98        23.4906    2.8910   -1.7709 H         1 UNK         0.0793 
     99 H99        25.0507    0.0641   -1.4380 H         1 UNK         0.3024 
    100 H100       22.9745   -1.2911    0.0210 H         1 UNK         0.1171 
    101 H101       22.4482   -3.6718   -0.5867 H         1 UNK         0.0786 
    102 H102       22.6121   -3.2678   -2.2951 H         1 UNK         0.0786 
    103 H103       21.3327   -2.5425   -1.3329 H         1 UNK         0.0786 
    104 H104       24.9915   -2.1952    0.2274 H         1 UNK         0.2977 
    105 H105       27.3358   -0.5638   -4.9252 H         1 UNK         0.3127 
    106 H106       29.9404   -0.0134   -5.9190 H         1 UNK         0.0770 
    107 H107       28.1013    1.6580   -4.1164 H         1 UNK         0.0814 
    108 H108       29.8124    1.9670   -4.3788 H         1 UNK         0.0814 
    109 H109       29.3108    0.4876   -3.5794 H         1 UNK         0.0814 
    110 H110       26.7743    1.5265   -6.4911 H         1 UNK         0.2983 
    111 H111       27.6522    3.6274   -8.1795 H         1 UNK         0.0947 
    112 H112       25.2509    3.6922   -8.8880 H         1 UNK         0.0806 
    113 H113       25.3951    3.5526   -7.1422 H         1 UNK         0.0806 
    114 H114       24.9683    2.1413   -8.1067 H         1 UNK         0.0806 
    115 H115       26.7414    0.2436   -8.9498 H         1 UNK         0.3000 
    116 H116       27.0485    0.5191  -11.7999 H         1 UNK         0.0850 
    117 H117       26.9528   -1.9790  -11.7655 H         1 UNK         0.0810 
    118 H118       25.6599   -1.2726  -10.8080 H         1 UNK         0.0810 
    119 H119       27.0659   -1.9704  -10.0100 H         1 UNK         0.0810 
    120 H120       29.2067   -0.7116   -9.1950 H         1 UNK         0.3040 
    121 H121       31.3446   -1.4368  -10.9377 H         1 UNK         0.0766 
    122 H122       32.6206   -1.6798   -8.7911 H         1 UNK         0.0812 
    123 H123       31.3062   -0.8904   -7.9270 H         1 UNK         0.0812 
    124 H124       31.0431   -2.4494   -8.7127 H         1 UNK         0.0812 
    125 H125       30.7137    1.5399   -9.0834 H         1 UNK         0.3205 
    126 H126       31.6169    3.5413   -8.9453 H         1 UNK         0.0754 
    127 H127       32.9001    4.5543  -10.8006 H         1 UNK         0.0769 
    128 H128       31.4944    3.7050  -11.4259 H         1 UNK         0.0769 
    129 H129       33.0988    2.9917  -11.5753 H         1 UNK         0.0769 
    130 H130       32.4903    2.3014   -7.0899 H         1 UNK         0.2981 
    131 H131       34.9773    1.1206   -6.9824 H         1 UNK         0.0541 
    132 H132       34.5127    4.6328   -6.9289 H         1 UNK         0.3459 
    133 H133       36.1638    4.9985   -6.4936 H         1 UNK         0.3459 
    134 H134       33.6358    2.4644   -4.5916 H         1 UNK         0.0612 
    135 H135       34.7643    1.1366   -4.5476 H         1 UNK         0.0612 
    136 H136       33.9536   -1.5219   -5.2083 H         1 UNK         0.0624 
    137 H137       33.7802   -0.8682   -3.5933 H         1 UNK         0.0624 
@<TRIPOS>BOND
     1    1    2 1    
     2    1   72 1    
     3    1   73 1    
     4    1   74 1    
     5    2    3 2    
     6    2    4 am   BACKBONE|DICT|INTERRES
     7    4    5 1    
     8    4   75 1    
     9    5    6 1    
    10    5   35 1    
    11    5   76 1    
    12    6    7 1    
    13    6   77 1    
    14    6   78 1    
    15    7    8 1    
    16    8    9 1    
    17    8   79 1    
    18    8   80 1    
    19    9   10 ar   
    20    9   14 ar   
    21   10   11 ar   
    22   10   81 1    
    23   11   12 ar   
    24   11   71 1    
    25   12   13 ar   
    26   12   82 1    
    27   13   14 ar   
    28   13   15 1    
    29   14   83 1    
    30   15   16 1    
    31   15   84 1    
    32   15   85 1    
    33   16   17 1    
    34   17   18 1    
    35   17   86 1    
    36   17   87 1    
    37   18   19 1    
    38   18   37 1    
    39   18   88 1    
    40   19   20 am   BACKBONE|DICT|INTERRES
    41   19   89 1    
    42   20   21 2    
    43   20   22 1    
    44   22   23 1    
    45   22   24 1    
    46   22   90 1    
    47   23   91 1    
    48   23   92 1    
    49   23   93 1    
    50   24   25 am   BACKBONE|DICT|INTERRES
    51   24   94 1    
    52   25   26 2    
    53   25   27 1    
    54   27   28 1    
    55   27   29 1    
    56   27   95 1    
    57   28   96 1    
    58   28   97 1    
    59   28   98 1    
    60   29   30 am   BACKBONE|DICT|INTERRES
    61   29   99 1    
    62   30   31 2    
    63   30   32 1    
    64   32   33 1    
    65   32   34 1    
    66   32  100 1    
    67   33  101 1    
    68   33  102 1    
    69   33  103 1    
    70   34   35 am   BACKBONE|DICT|INTERRES
    71   34  104 1    
    72   35   36 2    
    73   37   38 2    
    74   37   39 am   BACKBONE|DICT|INTERRES
    75   39   40 1    
    76   39  105 1    
    77   40   41 1    
    78   40   42 1    
    79   40  106 1    
    80   41  107 1    
    81   41  108 1    
    82   41  109 1    
    83   42   43 2    
    84   42   44 am   BACKBONE|DICT|INTERRES
    85   44   45 1    
    86   44  110 1    
    87   45   46 1    
    88   45   47 1    
    89   45  111 1    
    90   46  112 1    
    91   46  113 1    
    92   46  114 1    
    93   47   48 2    
    94   47   49 am   BACKBONE|DICT|INTERRES
    95   49   50 1    
    96   49  115 1    
    97   50   51 1    
    98   50   52 1    
    99   50  116 1    
   100   51  117 1    
   101   51  118 1    
   102   51  119 1    
   103   52   53 2    
   104   52   54 am   BACKBONE|DICT|INTERRES
   105   54   55 1    
   106   54  120 1    
   107   55   56 1    
   108   55   57 1    
   109   55  121 1    
   110   56  122 1    
   111   56  123 1    
   112   56  124 1    
   113   57   58 2    
   114   57   59 am   BACKBONE|DICT|INTERRES
   115   59   60 1    
   116   59  125 1    
   117   60   61 1    
   118   60   62 1    
   119   60  126 1    
   120   61  127 1    
   121   61  128 1    
   122   61  129 1    
   123   62   63 2    
   124   62   64 am   BACKBONE|DICT|INTERRES
   125   64   65 1    
   126   64  130 1    
   127   65   66 1    
   128   65   69 1    
   129   65  131 1    
   130   66   67 am   BACKBONE|DICT|INTERRES
   131   66   68 2    
   132   67  132 1    
   133   67  133 1    
   134   69   70 1    
   135   69  134 1    
   136   69  135 1    
   137   70   71 1    
   138   71  136 1    
   139   71  137 1    
@<TRIPOS>SUBSTRUCTURE
     1 UNK         1 GROUP             0       ****    0 ROOT    
