@<TRIPOS>MOLECULE
3R137
137   139    1
SMALL
USER_CHARGES


@<TRIPOS>ATOM
      1 CA         28.0143   -5.4314   -8.4486 C.3       0 UNK        -0.2020 
      2 C          27.5358   -6.0782   -7.1578 C.2       0 UNK         0.4855 
      3 O          26.7950   -7.0603   -7.2011 O.2       0 UNK        -0.5197 
      4 N          27.9502   -5.5319   -6.0077 N.am      1 UNK        -0.4892 
      5 CA         27.5537   -5.9820   -4.6656 C.3       1 UNK         0.0835 
      6 C6         28.5514   -5.4893   -3.5868 C.3       12 UNK        -0.0855 
      7 S7         28.7692   -3.6777   -3.5785 S.3       12 UNK        -0.2931 
      8 C8         29.9674   -3.4823   -2.2289 C.3       12 UNK         0.0378 
      9 C9         30.2794   -2.0109   -2.0195 C.ar      12 UNK        -0.0802 
     10 C10        31.4303   -1.4433   -2.5746 C.ar      12 UNK        -0.0944 
     11 C11        31.6911   -0.0779   -2.4222 C.ar      12 UNK        -0.0787 
     12 C12        30.7924    0.7171   -1.7033 C.ar      12 UNK        -0.0862 
     13 C13        29.6375    0.1587   -1.1438 C.ar      12 UNK        -0.0733 
     14 C14        29.3932   -1.2084   -1.2959 C.ar      12 UNK        -0.0832 
     15 C15        28.6406    1.0343   -0.3936 C.3       12 UNK         0.0240 
     16 S16        27.0543    1.2071   -1.2825 S.3       12 UNK        -0.2522 
     17 C17        27.6005    1.8396   -2.9037 C.3       12 UNK        -0.0967 
     18 CA         27.3796    0.7797   -4.0253 C.3       5 UNK         0.0660 
     19 N          25.9633    0.5945   -4.3615 N.am      5 UNK        -0.4015 
     20 C          25.1628    1.5001   -4.9509 C.2       4 UNK         0.4946 
     21 O          25.5510    2.6055   -5.3346 O.2       4 UNK        -0.5353 
     22 CA         23.6778    1.1345   -5.1595 C.3       4 UNK         0.0277 
     23 CB         23.4012    0.8287   -6.6406 C.3       4 UNK        -0.1981 
     24 N          23.2309   -0.0045   -4.3580 N.am      4 UNK        -0.4209 
     25 C          23.1132   -0.0283   -3.0229 C.2       3 UNK         0.4942 
     26 O          23.2193    0.9706   -2.3112 O.2       3 UNK        -0.5208 
     27 CA         22.8577   -1.4015   -2.3647 C.3       3 UNK         0.0250 
     28 CB         21.4316   -1.4679   -1.7928 C.3       3 UNK        -0.1990 
     29 N          23.0735   -2.5609   -3.2450 N.am      3 UNK        -0.4232 
     30 C          24.2324   -2.8918   -3.8331 C.2       2 UNK         0.4993 
     31 O          25.2696   -2.2333   -3.7186 O.2       2 UNK        -0.5286 
     32 CA         24.1836   -4.0957   -4.7847 C.3       2 UNK         0.0209 
     33 CB         23.5917   -3.6746   -6.1414 C.3       2 UNK        -0.1931 
     34 N          25.5249   -4.6274   -5.0122 N.am      2 UNK        -0.4546 
     35 C          26.0957   -5.6114   -4.3058 C.2       1 UNK         0.5154 
     36 O          25.5189   -6.2279   -3.4075 O.2       1 UNK        -0.5181 
     37 C          28.2072    1.0115   -5.3064 C.2       5 UNK         0.5014 
     38 O          28.1219    0.1945   -6.2268 O.2       5 UNK        -0.5248 
     39 N          28.9807    2.1057   -5.3666 N.am      6 UNK        -0.4434 
     40 CA         29.9081    2.4374   -6.4510 C.3       6 UNK         0.0363 
     41 CB         30.6770    3.7184   -6.0937 C.3       6 UNK        -0.1936 
     42 C          29.2672    2.5595   -7.8408 C.2       6 UNK         0.5081 
     43 O          29.9539    2.3042   -8.8284 O.2       6 UNK        -0.5248 
     44 N          27.9691    2.8859   -7.9026 N.am      7 UNK        -0.4718 
     45 CA         27.1882    2.9096   -9.1426 C.3       7 UNK         0.0273 
     46 CB         25.8338    3.5830   -8.8749 C.3       7 UNK        -0.1935 
     47 C          26.9969    1.5183   -9.7797 C.2       7 UNK         0.5018 
     48 O          26.7738    1.4464  -10.9888 O.2       7 UNK        -0.5186 
     49 N          27.1002    0.4515   -8.9741 N.am      8 UNK        -0.4240 
     50 CA         27.0829   -0.9397   -9.4260 C.3       8 UNK         0.0235 
     51 CB         26.1222   -1.7532   -8.5410 C.3       8 UNK        -0.2000 
     52 C          28.4917   -1.5500   -9.3886 C.2       8 UNK         0.4941 
     53 O          28.8816   -2.2278  -10.3392 O.2       8 UNK        -0.5273 
     54 N          29.2179   -1.3267   -8.2850 N.am      9 UNK        -0.4262 
     55 CA         30.5050   -1.9596   -7.9930 C.3       9 UNK         0.0264 
     56 CB         30.7227   -1.9496   -6.4727 C.3       9 UNK        -0.1955 
     57 C          31.7139   -1.3466   -8.7202 C.2       9 UNK         0.5031 
     58 O          32.7290   -2.0354   -8.8329 O.2       9 UNK        -0.5390 
     59 N          31.6057   -0.0910   -9.1871 N.am      10 UNK        -0.4204 
     60 CA         32.6580    0.6925   -9.8531 C.3       10 UNK         0.0237 
     61 CB         32.9847    0.1043  -11.2430 C.3       10 UNK        -0.1985 
     62 C          33.9036    0.8766   -8.9618 C.2       10 UNK         0.4970 
     63 O          35.0168    0.5404   -9.3705 O.2       10 UNK        -0.4914 
     64 N          33.6768    1.3860   -7.7436 N.am      11 UNK        -0.4285 
     65 CA         34.6911    1.5547   -6.6861 C.3       11 UNK         0.1007 
     66 C          35.8105    2.5927   -6.9942 C.2       11 UNK         0.5703 
     67 N          35.6455    3.4825   -7.9661 N.am      11 UNK        -0.7361 
     68 O          36.8490    2.5873   -6.3374 O.2       11 UNK        -0.4986 
     69 C69        34.0458    1.8570   -5.3053 C.3       12 UNK        -0.0947 
     70 S70        32.7308    0.6791   -4.8527 S.3       12 UNK        -0.2240 
     71 C71        32.9307    0.5411   -3.0528 C.3       12 UNK         0.0194 
     72 H72        28.5467   -4.4997   -8.2632 H         1 UNK         0.0906 
     73 H73        28.6836   -6.1061   -8.9817 H         1 UNK         0.0906 
     74 H74        27.1666   -5.2107   -9.0967 H         1 UNK         0.0906 
     75 H75        28.5631   -4.7284   -6.0192 H         1 UNK         0.3140 
     76 H76        27.5903   -7.0740   -4.6637 H         1 UNK         0.1085 
     77 H77        29.5263   -5.9486   -3.7586 H         1 UNK         0.0836 
     78 H78        28.2399   -5.8176   -2.5929 H         1 UNK         0.0836 
     79 H79        30.8762   -4.0393   -2.4626 H         1 UNK         0.0731 
     80 H80        29.5621   -3.9121   -1.3115 H         1 UNK         0.0731 
     81 H81        32.1126   -2.0570   -3.1470 H         1 UNK         0.1312 
     82 H82        30.9854    1.7755   -1.5924 H         1 UNK         0.1406 
     83 H83        28.4931   -1.6415   -0.8803 H         1 UNK         0.1631 
     84 H84        29.0556    2.0274   -0.2140 H         1 UNK         0.0717 
     85 H85        28.4496    0.6012    0.5892 H         1 UNK         0.0717 
     86 H86        27.0603    2.7632   -3.1176 H         1 UNK         0.0934 
     87 H87        28.6480    2.1249   -2.8120 H         1 UNK         0.0934 
     88 H88        27.7262   -0.1847   -3.6488 H         1 UNK         0.0739 
     89 H89        25.5857   -0.3179   -4.1220 H         1 UNK         0.3093 
     90 H90        23.0841    2.0035   -4.8680 H         1 UNK         0.0818 
     91 H91        23.6256    1.6921   -7.2660 H         1 UNK         0.0819 
     92 H92        24.0075   -0.0027   -7.0003 H         1 UNK         0.0819 
     93 H93        22.3532    0.5797   -6.8081 H         1 UNK         0.0819 
     94 H94        23.1061   -0.8764   -4.8493 H         1 UNK         0.3041 
     95 H95        23.5636   -1.4872   -1.5359 H         1 UNK         0.0784 
     96 H96        21.2471   -0.6425   -1.1034 H         1 UNK         0.0793 
     97 H97        20.6782   -1.4091   -2.5794 H         1 UNK         0.0793 
     98 H98        21.2680   -2.3914   -1.2369 H         1 UNK         0.0793 
     99 H99        22.2645   -3.1421   -3.4146 H         1 UNK         0.3024 
    100 H100       23.5504   -4.8697   -4.3441 H         1 UNK         0.1171 
    101 H101       22.5623   -3.3300   -6.0350 H         1 UNK         0.0786 
    102 H102       24.1616   -2.8651   -6.5986 H         1 UNK         0.0786 
    103 H103       23.5783   -4.5095   -6.8426 H         1 UNK         0.0786 
    104 H104       26.1025   -4.1329   -5.6752 H         1 UNK         0.2977 
    105 H105       28.9599    2.7486   -4.5893 H         1 UNK         0.3127 
    106 H106       30.6207    1.6156   -6.5175 H         1 UNK         0.0770 
    107 H107       30.0093    4.5756   -5.9985 H         1 UNK         0.0814 
    108 H108       31.4118    3.9619   -6.8625 H         1 UNK         0.0814 
    109 H109       31.2186    3.6081   -5.1542 H         1 UNK         0.0814 
    110 H110       27.4675    3.0519   -7.0394 H         1 UNK         0.2983 
    111 H111       27.7319    3.5185   -9.8686 H         1 UNK         0.0947 
    112 H112       25.2178    3.6006   -9.7752 H         1 UNK         0.0806 
    113 H113       25.9627    4.6159   -8.5513 H         1 UNK         0.0806 
    114 H114       25.2721    3.0600   -8.1024 H         1 UNK         0.0806 
    115 H115       27.3147    0.6040   -7.9937 H         1 UNK         0.3000 
    116 H116       26.7241   -1.0031  -10.4557 H         1 UNK         0.0850 
    117 H117       26.1285   -2.8073   -8.8210 H         1 UNK         0.0810 
    118 H118       25.0975   -1.3994   -8.6507 H         1 UNK         0.0810 
    119 H119       26.3882   -1.6920   -7.4846 H         1 UNK         0.0810 
    120 H120       28.8092   -0.7730   -7.5321 H         1 UNK         0.3040 
    121 H121       30.4515   -3.0028   -8.3108 H         1 UNK         0.0766 
    122 H122       30.6841   -0.9393   -6.0682 H         1 UNK         0.0812 
    123 H123       31.6896   -2.3764   -6.2025 H         1 UNK         0.0812 
    124 H124       29.9572   -2.5335   -5.9655 H         1 UNK         0.0812 
    125 H125       30.7357    0.4099   -9.0394 H         1 UNK         0.3205 
    126 H126       32.2495    1.6907  -10.0149 H         1 UNK         0.0754 
    127 H127       33.6899    0.7403  -11.7794 H         1 UNK         0.0769 
    128 H128       32.0885    0.0237  -11.8583 H         1 UNK         0.0769 
    129 H129       33.4319   -0.8877  -11.1720 H         1 UNK         0.0769 
    130 H130       32.7325    1.6246   -7.4858 H         1 UNK         0.2981 
    131 H131       35.1994    0.5925   -6.5981 H         1 UNK         0.0541 
    132 H132       36.3793    4.1463   -8.1570 H         1 UNK         0.3459 
    133 H133       34.8002    3.4926   -8.5130 H         1 UNK         0.3459 
    134 H134       33.6161    2.8600   -5.2951 H         1 UNK         0.0612 
    135 H135       34.8088    1.8422   -4.5246 H         1 UNK         0.0612 
    136 H136       33.8080   -0.0680   -2.8299 H         1 UNK         0.0624 
    137 H137       33.1190    1.5304   -2.6325 H         1 UNK         0.0624 
@<TRIPOS>BOND
     1    1    2 1    
     2    1   72 1    
     3    1   73 1    
     4    1   74 1    
     5    2    3 2    
     6    2    4 am   BACKBONE|DICT|INTERRES
     7    4    5 1    
     8    4   75 1    
     9    5    6 1    
    10    5   35 1    
    11    5   76 1    
    12    6    7 1    
    13    6   77 1    
    14    6   78 1    
    15    7    8 1    
    16    8    9 1    
    17    8   79 1    
    18    8   80 1    
    19    9   10 ar   
    20    9   14 ar   
    21   10   11 ar   
    22   10   81 1    
    23   11   12 ar   
    24   11   71 1    
    25   12   13 ar   
    26   12   82 1    
    27   13   14 ar   
    28   13   15 1    
    29   14   83 1    
    30   15   16 1    
    31   15   84 1    
    32   15   85 1    
    33   16   17 1    
    34   17   18 1    
    35   17   86 1    
    36   17   87 1    
    37   18   19 1    
    38   18   37 1    
    39   18   88 1    
    40   19   20 am   BACKBONE|DICT|INTERRES
    41   19   89 1    
    42   20   21 2    
    43   20   22 1    
    44   22   23 1    
    45   22   24 1    
    46   22   90 1    
    47   23   91 1    
    48   23   92 1    
    49   23   93 1    
    50   24   25 am   BACKBONE|DICT|INTERRES
    51   24   94 1    
    52   25   26 2    
    53   25   27 1    
    54   27   28 1    
    55   27   29 1    
    56   27   95 1    
    57   28   96 1    
    58   28   97 1    
    59   28   98 1    
    60   29   30 am   BACKBONE|DICT|INTERRES
    61   29   99 1    
    62   30   31 2    
    63   30   32 1    
    64   32   33 1    
    65   32   34 1    
    66   32  100 1    
    67   33  101 1    
    68   33  102 1    
    69   33  103 1    
    70   34   35 am   BACKBONE|DICT|INTERRES
    71   34  104 1    
    72   35   36 2    
    73   37   38 2    
    74   37   39 am   BACKBONE|DICT|INTERRES
    75   39   40 1    
    76   39  105 1    
    77   40   41 1    
    78   40   42 1    
    79   40  106 1    
    80   41  107 1    
    81   41  108 1    
    82   41  109 1    
    83   42   43 2    
    84   42   44 am   BACKBONE|DICT|INTERRES
    85   44   45 1    
    86   44  110 1    
    87   45   46 1    
    88   45   47 1    
    89   45  111 1    
    90   46  112 1    
    91   46  113 1    
    92   46  114 1    
    93   47   48 2    
    94   47   49 am   BACKBONE|DICT|INTERRES
    95   49   50 1    
    96   49  115 1    
    97   50   51 1    
    98   50   52 1    
    99   50  116 1    
   100   51  117 1    
   101   51  118 1    
   102   51  119 1    
   103   52   53 2    
   104   52   54 am   BACKBONE|DICT|INTERRES
   105   54   55 1    
   106   54  120 1    
   107   55   56 1    
   108   55   57 1    
   109   55  121 1    
   110   56  122 1    
   111   56  123 1    
   112   56  124 1    
   113   57   58 2    
   114   57   59 am   BACKBONE|DICT|INTERRES
   115   59   60 1    
   116   59  125 1    
   117   60   61 1    
   118   60   62 1    
   119   60  126 1    
   120   61  127 1    
   121   61  128 1    
   122   61  129 1    
   123   62   63 2    
   124   62   64 am   BACKBONE|DICT|INTERRES
   125   64   65 1    
   126   64  130 1    
   127   65   66 1    
   128   65   69 1    
   129   65  131 1    
   130   66   67 am   BACKBONE|DICT|INTERRES
   131   66   68 2    
   132   67  132 1    
   133   67  133 1    
   134   69   70 1    
   135   69  134 1    
   136   69  135 1    
   137   70   71 1    
   138   71  136 1    
   139   71  137 1    
@<TRIPOS>SUBSTRUCTURE
     1 UNK         1 GROUP             0       ****    0 ROOT    
