@<TRIPOS>MOLECULE
3R137
137   139    1
SMALL
USER_CHARGES


@<TRIPOS>ATOM
      1 CA         26.2846   -3.4370   -3.1782 C.3       0 UNK        -0.2020 
      2 C          26.9531   -3.7160   -1.8446 C.2       0 UNK         0.4855 
      3 O          26.3266   -3.5590   -0.7950 O.2       0 UNK        -0.5197 
      4 N          28.2259   -4.1254   -1.8759 N.am      1 UNK        -0.4892 
      5 CA         29.0357   -4.4486   -0.6989 C.3       1 UNK         0.0835 
      6 C6         30.2848   -5.2919   -1.0590 C.3       12 UNK        -0.0855 
      7 S7         29.8535   -6.8112   -1.9786 S.3       12 UNK        -0.2931 
      8 C8         30.7512   -6.5795   -3.5473 C.3       12 UNK         0.0378 
      9 C9         30.2206   -5.4118   -4.3713 C.ar      12 UNK        -0.0802 
     10 C10        30.9066   -4.1928   -4.3824 C.ar      12 UNK        -0.0944 
     11 C11        30.4646   -3.1368   -5.1825 C.ar      12 UNK        -0.0787 
     12 C12        29.3198   -3.3025   -5.9639 C.ar      12 UNK        -0.0862 
     13 C13        28.6392   -4.5219   -5.9911 C.ar      12 UNK        -0.0733 
     14 C14        29.0864   -5.5698   -5.1767 C.ar      12 UNK        -0.0832 
     15 C15        27.4809   -4.7359   -6.9614 C.3       12 UNK         0.0240 
     16 S16        26.0501   -3.6607   -6.6272 S.3       12 UNK        -0.2522 
     17 C17        26.2427   -2.3231   -7.8554 C.3       12 UNK        -0.0967 
     18 CA         25.5645   -1.0218   -7.3542 C.3       5 UNK         0.0660 
     19 N          26.3250   -0.3493   -6.2994 N.am      5 UNK        -0.4015 
     20 C          25.7692    0.1737   -5.1981 C.2       4 UNK         0.4946 
     21 O          24.6158   -0.0593   -4.8245 O.2       4 UNK        -0.5353 
     22 CA         26.6012    1.2139   -4.4296 C.3       4 UNK         0.0277 
     23 CB         26.2299    2.6258   -4.9228 C.3       4 UNK        -0.1981 
     24 N          26.3285    1.1485   -2.9935 N.am      4 UNK        -0.4209 
     25 C          26.8155    0.2109   -2.1745 C.2       3 UNK         0.4942 
     26 O          27.6477   -0.6274   -2.5191 O.2       3 UNK        -0.5208 
     27 CA         26.2497    0.2023   -0.7452 C.3       3 UNK         0.0250 
     28 CB         24.7769   -0.2461   -0.7463 C.3       3 UNK        -0.1990 
     29 N          27.0070   -0.7190    0.1014 N.am      3 UNK        -0.4232 
     30 C          27.9534   -0.3650    0.9809 C.2       2 UNK         0.4993 
     31 O          28.2600    0.8030    1.2245 O.2       2 UNK        -0.5286 
     32 CA         28.6718   -1.4970    1.7396 C.3       2 UNK         0.0209 
     33 CB         28.0799   -1.6573    3.1500 C.3       2 UNK        -0.1931 
     34 N          28.5894   -2.7810    1.0390 N.am      2 UNK        -0.4546 
     35 C          29.4085   -3.1512    0.0464 C.2       1 UNK         0.5154 
     36 O          30.3955   -2.5010   -0.3034 O.2       1 UNK        -0.5181 
     37 C          25.2882    0.0363   -8.4417 C.2       5 UNK         0.5014 
     38 O          24.4306    0.8937   -8.2197 O.2       5 UNK        -0.5248 
     39 N          25.9910   -0.0056   -9.5813 N.am      6 UNK        -0.4434 
     40 CA         25.8179    0.9390  -10.6856 C.3       6 UNK         0.0363 
     41 CB         24.6186    0.5151  -11.5552 C.3       6 UNK        -0.1936 
     42 C          27.0962    1.0050  -11.5259 C.2       6 UNK         0.5081 
     43 O          27.8953    0.0659  -11.4945 O.2       6 UNK        -0.5248 
     44 N          27.2449    2.1029  -12.2815 N.am      7 UNK        -0.4718 
     45 CA         28.3471    2.3992  -13.2063 C.3       7 UNK         0.0273 
     46 CB         28.2444    1.5001  -14.4606 C.3       7 UNK        -0.1935 
     47 C          29.7153    2.3480  -12.4983 C.2       7 UNK         0.5018 
     48 O          29.9048    3.0569  -11.5090 O.2       7 UNK        -0.5186 
     49 N          30.6291    1.4918  -12.9745 N.am      8 UNK        -0.4240 
     50 CA         31.9402    1.2403  -12.3669 C.3       8 UNK         0.0235 
     51 CB         32.7723    0.3620  -13.3158 C.3       8 UNK        -0.2000 
     52 C          31.8696    0.6010  -10.9655 C.2       8 UNK         0.4941 
     53 O          32.8482    0.6840  -10.2231 O.2       8 UNK        -0.5273 
     54 N          30.7257   -0.0074  -10.6223 N.am      9 UNK        -0.4262 
     55 CA         30.4488   -0.6282   -9.3290 C.3       9 UNK         0.0264 
     56 CB         29.7944   -1.9983   -9.5779 C.3       9 UNK        -0.1955 
     57 C          29.5928    0.2815   -8.4246 C.2       9 UNK         0.5031 
     58 O          29.0140   -0.1996   -7.4481 O.2       9 UNK        -0.5390 
     59 N          29.5247    1.5892   -8.7123 N.am      10 UNK        -0.4204 
     60 CA         28.8919    2.5886   -7.8464 C.3       10 UNK         0.0237 
     61 CB         28.4443    3.7928   -8.6935 C.3       10 UNK        -0.1985 
     62 C          29.8233    2.9868   -6.6804 C.2       10 UNK         0.4970 
     63 O          30.1885    4.1559   -6.5524 O.2       10 UNK        -0.4914 
     64 N          30.2160    1.9965   -5.8698 N.am      11 UNK        -0.4285 
     65 CA         31.1675    2.1189   -4.7522 C.3       11 UNK         0.1007 
     66 C          30.6376    2.8294   -3.4706 C.2       11 UNK         0.5703 
     67 N          29.3818    3.2506   -3.4087 N.am      11 UNK        -0.7361 
     68 O          31.3921    3.0274   -2.5210 O.2       11 UNK        -0.4986 
     69 C69        31.8555    0.7619   -4.4406 C.3       12 UNK        -0.0947 
     70 S70        30.6953   -0.6021   -4.0739 S.3       12 UNK        -0.2240 
     71 C71        31.2654   -1.8465   -5.2663 C.3       12 UNK         0.0194 
     72 H72        25.8401   -4.3469   -3.5796 H         1 UNK         0.0906 
     73 H73        25.5004   -2.6885   -3.0696 H         1 UNK         0.0906 
     74 H74        27.0075   -3.0526   -3.8978 H         1 UNK         0.0906 
     75 H75        28.7021   -4.2131   -2.7643 H         1 UNK         0.3140 
     76 H76        28.4225   -5.0575   -0.0304 H         1 UNK         0.1085 
     77 H77        31.0021   -4.7035   -1.6316 H         1 UNK         0.0836 
     78 H78        30.8081   -5.5901   -0.1487 H         1 UNK         0.0836 
     79 H79        30.6735   -7.4975   -4.1319 H         1 UNK         0.0731 
     80 H80        31.8139   -6.4493   -3.3363 H         1 UNK         0.0731 
     81 H81        31.8028   -4.0711   -3.7895 H         1 UNK         0.1312 
     82 H82        28.9756   -2.4867   -6.5764 H         1 UNK         0.1406 
     83 H83        28.5746   -6.5228   -5.1929 H         1 UNK         0.1631 
     84 H84        27.1383   -5.7706   -6.9144 H         1 UNK         0.0717 
     85 H85        27.8310   -4.5840   -7.9834 H         1 UNK         0.0717 
     86 H86        27.2965   -2.1592   -8.0728 H         1 UNK         0.0934 
     87 H87        25.7814   -2.6723   -8.7813 H         1 UNK         0.0934 
     88 H88        24.5779   -1.3049   -6.9801 H         1 UNK         0.0739 
     89 H89        27.2918   -0.1419   -6.5343 H         1 UNK         0.3093 
     90 H90        27.6634    1.0277   -4.6041 H         1 UNK         0.0818 
     91 H91        26.3734    2.7288   -5.9973 H         1 UNK         0.0819 
     92 H92        25.1794    2.8490   -4.7298 H         1 UNK         0.0819 
     93 H93        26.8208    3.3998   -4.4358 H         1 UNK         0.0819 
     94 H94        25.6123    1.7696   -2.6467 H         1 UNK         0.3041 
     95 H95        26.3080    1.2179   -0.3477 H         1 UNK         0.0784 
     96 H96        24.1543    0.4273   -1.3365 H         1 UNK         0.0793 
     97 H97        24.6603   -1.2466   -1.1647 H         1 UNK         0.0793 
     98 H98        24.3676   -0.2586    0.2640 H         1 UNK         0.0793 
     99 H99        26.8690   -1.7051   -0.0944 H         1 UNK         0.3024 
    100 H100       29.7209   -1.2079    1.8394 H         1 UNK         0.1171 
    101 H101       27.0272   -1.9413    3.1175 H         1 UNK         0.0786 
    102 H102       28.6158   -2.4156    3.7213 H         1 UNK         0.0786 
    103 H103       28.1483   -0.7234    3.7099 H         1 UNK         0.0786 
    104 H104       27.7759   -3.3513    1.2289 H         1 UNK         0.2977 
    105 H105       26.7322   -0.6804   -9.7191 H         1 UNK         0.3127 
    106 H106       25.6376    1.9365  -10.2781 H         1 UNK         0.0770 
    107 H107       24.4770    1.1978  -12.3940 H         1 UNK         0.0814 
    108 H108       23.6908    0.5148  -10.9830 H         1 UNK         0.0814 
    109 H109       24.7573   -0.4848  -11.9682 H         1 UNK         0.0814 
    110 H110       26.5405    2.8245  -12.2109 H         1 UNK         0.2983 
    111 H111       28.2168    3.4335  -13.5287 H         1 UNK         0.0947 
    112 H112       29.0021    1.7610  -15.2009 H         1 UNK         0.0806 
    113 H113       27.2765    1.6227  -14.9468 H         1 UNK         0.0806 
    114 H114       28.3559    0.4415  -14.2222 H         1 UNK         0.0806 
    115 H115       30.3868    0.9338  -13.7806 H         1 UNK         0.3000 
    116 H116       32.4460    2.2020  -12.2567 H         1 UNK         0.0850 
    117 H117       32.3066   -0.6110  -13.4781 H         1 UNK         0.0810 
    118 H118       33.7684    0.1821  -12.9086 H         1 UNK         0.0810 
    119 H119       32.9041    0.8393  -14.2871 H         1 UNK         0.0810 
    120 H120       29.9422    0.0105  -11.2687 H         1 UNK         0.3040 
    121 H121       31.3849   -0.8037   -8.7955 H         1 UNK         0.0766 
    122 H122       30.3865   -2.5967  -10.2704 H         1 UNK         0.0812 
    123 H123       28.7929   -1.9047   -9.9959 H         1 UNK         0.0812 
    124 H124       29.7188   -2.5733   -8.6581 H         1 UNK         0.0812 
    125 H125       30.0001    1.9388   -9.5359 H         1 UNK         0.3205 
    126 H126       27.9935    2.1484   -7.4147 H         1 UNK         0.0754 
    127 H127       27.9137    4.5249   -8.0834 H         1 UNK         0.0769 
    128 H128       27.7691    3.4870   -9.4925 H         1 UNK         0.0769 
    129 H129       29.2931    4.3024   -9.1513 H         1 UNK         0.0769 
    130 H130       29.8749    1.0601   -6.0558 H         1 UNK         0.2981 
    131 H131       31.9614    2.7796   -5.1056 H         1 UNK         0.0541 
    132 H132       28.7667    3.1280   -4.1930 H         1 UNK         0.3459 
    133 H133       29.0623    3.7180   -2.5756 H         1 UNK         0.3459 
    134 H134       32.5499    0.8564   -3.6040 H         1 UNK         0.0612 
    135 H135       32.4752    0.4816   -5.2936 H         1 UNK         0.0612 
    136 H136       31.1997   -1.4357   -6.2742 H         1 UNK         0.0624 
    137 H137       32.3219   -2.0528   -5.0881 H         1 UNK         0.0624 
@<TRIPOS>BOND
     1    1    2 1    
     2    1   72 1    
     3    1   73 1    
     4    1   74 1    
     5    2    3 2    
     6    2    4 am   BACKBONE|DICT|INTERRES
     7    4    5 1    
     8    4   75 1    
     9    5    6 1    
    10    5   35 1    
    11    5   76 1    
    12    6    7 1    
    13    6   77 1    
    14    6   78 1    
    15    7    8 1    
    16    8    9 1    
    17    8   79 1    
    18    8   80 1    
    19    9   10 ar   
    20    9   14 ar   
    21   10   11 ar   
    22   10   81 1    
    23   11   12 ar   
    24   11   71 1    
    25   12   13 ar   
    26   12   82 1    
    27   13   14 ar   
    28   13   15 1    
    29   14   83 1    
    30   15   16 1    
    31   15   84 1    
    32   15   85 1    
    33   16   17 1    
    34   17   18 1    
    35   17   86 1    
    36   17   87 1    
    37   18   19 1    
    38   18   37 1    
    39   18   88 1    
    40   19   20 am   BACKBONE|DICT|INTERRES
    41   19   89 1    
    42   20   21 2    
    43   20   22 1    
    44   22   23 1    
    45   22   24 1    
    46   22   90 1    
    47   23   91 1    
    48   23   92 1    
    49   23   93 1    
    50   24   25 am   BACKBONE|DICT|INTERRES
    51   24   94 1    
    52   25   26 2    
    53   25   27 1    
    54   27   28 1    
    55   27   29 1    
    56   27   95 1    
    57   28   96 1    
    58   28   97 1    
    59   28   98 1    
    60   29   30 am   BACKBONE|DICT|INTERRES
    61   29   99 1    
    62   30   31 2    
    63   30   32 1    
    64   32   33 1    
    65   32   34 1    
    66   32  100 1    
    67   33  101 1    
    68   33  102 1    
    69   33  103 1    
    70   34   35 am   BACKBONE|DICT|INTERRES
    71   34  104 1    
    72   35   36 2    
    73   37   38 2    
    74   37   39 am   BACKBONE|DICT|INTERRES
    75   39   40 1    
    76   39  105 1    
    77   40   41 1    
    78   40   42 1    
    79   40  106 1    
    80   41  107 1    
    81   41  108 1    
    82   41  109 1    
    83   42   43 2    
    84   42   44 am   BACKBONE|DICT|INTERRES
    85   44   45 1    
    86   44  110 1    
    87   45   46 1    
    88   45   47 1    
    89   45  111 1    
    90   46  112 1    
    91   46  113 1    
    92   46  114 1    
    93   47   48 2    
    94   47   49 am   BACKBONE|DICT|INTERRES
    95   49   50 1    
    96   49  115 1    
    97   50   51 1    
    98   50   52 1    
    99   50  116 1    
   100   51  117 1    
   101   51  118 1    
   102   51  119 1    
   103   52   53 2    
   104   52   54 am   BACKBONE|DICT|INTERRES
   105   54   55 1    
   106   54  120 1    
   107   55   56 1    
   108   55   57 1    
   109   55  121 1    
   110   56  122 1    
   111   56  123 1    
   112   56  124 1    
   113   57   58 2    
   114   57   59 am   BACKBONE|DICT|INTERRES
   115   59   60 1    
   116   59  125 1    
   117   60   61 1    
   118   60   62 1    
   119   60  126 1    
   120   61  127 1    
   121   61  128 1    
   122   61  129 1    
   123   62   63 2    
   124   62   64 am   BACKBONE|DICT|INTERRES
   125   64   65 1    
   126   64  130 1    
   127   65   66 1    
   128   65   69 1    
   129   65  131 1    
   130   66   67 am   BACKBONE|DICT|INTERRES
   131   66   68 2    
   132   67  132 1    
   133   67  133 1    
   134   69   70 1    
   135   69  134 1    
   136   69  135 1    
   137   70   71 1    
   138   71  136 1    
   139   71  137 1    
@<TRIPOS>SUBSTRUCTURE
     1 UNK         1 GROUP             0       ****    0 ROOT    
