@<TRIPOS>MOLECULE
3R137
137   139    1
SMALL
USER_CHARGES


@<TRIPOS>ATOM
      1 CA         24.8911   -6.7984    0.3041 C.3       0 UNK        -0.2020 
      2 C          25.8649   -5.6363    0.1790 C.2       0 UNK         0.4855 
      3 O          26.3306   -5.1166    1.1931 O.2       0 UNK        -0.5197 
      4 N          26.1781   -5.2276   -1.0577 N.am      1 UNK        -0.4892 
      5 CA         27.1003   -4.1274   -1.3726 C.3       1 UNK         0.0835 
      6 C6         27.4747   -4.1069   -2.8739 C.3       12 UNK        -0.0855 
      7 S7         28.3219   -5.6238   -3.4364 S.3       12 UNK        -0.2931 
      8 C8         30.0584   -5.3145   -2.9694 C.3       12 UNK         0.0378 
      9 C9         30.6140   -4.0470   -3.6028 C.ar      12 UNK        -0.0802 
     10 C10        31.0167   -4.0396   -4.9429 C.ar      12 UNK        -0.0944 
     11 C11        31.4956   -2.8633   -5.5278 C.ar      12 UNK        -0.0787 
     12 C12        31.5846   -1.7010   -4.7606 C.ar      12 UNK        -0.0862 
     13 C13        31.1647   -1.6897   -3.4293 C.ar      12 UNK        -0.0733 
     14 C14        30.6993   -2.8716   -2.8491 C.ar      12 UNK        -0.0832 
     15 C15        31.1864   -0.3967   -2.6266 C.3       12 UNK         0.0240 
     16 S16        30.2502    0.9425   -3.4372 S.3       12 UNK        -0.2522 
     17 C17        28.5702    0.2324   -3.5902 C.3       12 UNK        -0.0967 
     18 CA         28.1515   -0.1076   -5.0478 C.3       5 UNK         0.0660 
     19 N          26.8514   -0.7909   -5.0955 N.am      5 UNK        -0.4015 
     20 C          26.3085   -1.3196   -6.2073 C.2       4 UNK         0.4946 
     21 O          26.8978   -1.3815   -7.2848 O.2       4 UNK        -0.5353 
     22 CA         24.8456   -1.8070   -6.1529 C.3       4 UNK         0.0277 
     23 CB         24.7622   -3.3338   -6.0072 C.3       4 UNK        -0.1981 
     24 N          24.0373   -1.1642   -5.1170 N.am      4 UNK        -0.4209 
     25 C          23.7694    0.1481   -5.0637 C.2       3 UNK         0.4942 
     26 O          24.1006    0.9448   -5.9428 O.2       3 UNK        -0.5208 
     27 CA         23.0751    0.6703   -3.7906 C.3       3 UNK         0.0250 
     28 CB         21.5657    0.8268   -4.0329 C.3       3 UNK        -0.1990 
     29 N          23.2934   -0.1457   -2.5844 N.am      3 UNK        -0.4232 
     30 C          24.4873   -0.4747   -2.0656 C.2       2 UNK         0.4993 
     31 O          25.5536   -0.1561   -2.5927 O.2       2 UNK        -0.5286 
     32 CA         24.5085   -1.3252   -0.7796 C.3       2 UNK         0.0209 
     33 CB         23.1111   -1.6479   -0.2103 C.3       2 UNK        -0.1931 
     34 N          25.2218   -2.5813   -1.0203 N.am      2 UNK        -0.4546 
     35 C          26.5517   -2.7457   -0.9568 C.2       1 UNK         0.5154 
     36 O          27.3390   -1.8700   -0.5956 O.2       1 UNK        -0.5181 
     37 C          28.1411    1.1452   -5.9504 C.2       5 UNK         0.5014 
     38 O          29.0486    1.3199   -6.7659 O.2       5 UNK        -0.5248 
     39 N          27.0925    1.9713   -5.8150 N.am      6 UNK        -0.4434 
     40 CA         26.8830    3.1764   -6.6173 C.3       6 UNK         0.0363 
     41 CB         25.7678    4.0333   -5.9976 C.3       6 UNK        -0.1936 
     42 C          26.5774    2.8520   -8.0870 C.2       6 UNK         0.5081 
     43 O          27.1225    3.5128   -8.9704 O.2       6 UNK        -0.5248 
     44 N          25.7569    1.8182   -8.3301 N.am      7 UNK        -0.4718 
     45 CA         25.4262    1.3258   -9.6742 C.3       7 UNK         0.0273 
     46 CB         24.3421    0.2418   -9.5825 C.3       7 UNK        -0.1935 
     47 C          26.6521    0.7987  -10.4433 C.2       7 UNK         0.5018 
     48 O          26.7600    1.0352  -11.6466 O.2       7 UNK        -0.5186 
     49 N          27.5697    0.1347   -9.7276 N.am      8 UNK        -0.4240 
     50 CA         28.8624   -0.3320  -10.2342 C.3       8 UNK         0.0235 
     51 CB         29.3075   -1.5392   -9.3929 C.3       8 UNK        -0.2000 
     52 C          29.9537    0.7582  -10.2445 C.2       8 UNK         0.4941 
     53 O          31.1006    0.4408  -10.5649 O.2       8 UNK        -0.5273 
     54 N          29.6109    2.0030   -9.8716 N.am      9 UNK        -0.4262 
     55 CA         30.4851    3.1814   -9.7894 C.3       9 UNK         0.0264 
     56 CB         30.8751    3.6593  -11.2040 C.3       9 UNK        -0.1955 
     57 C          31.7054    2.9692   -8.8706 C.2       9 UNK         0.5031 
     58 O          32.8058    3.4197   -9.1940 O.2       9 UNK        -0.5390 
     59 N          31.4856    2.2530   -7.7585 N.am      10 UNK        -0.4204 
     60 CA         32.4604    1.8122   -6.7561 C.3       10 UNK         0.0237 
     61 CB         33.1336    3.0153   -6.0620 C.3       10 UNK        -0.1985 
     62 C          33.4867    0.7696   -7.2534 C.2       10 UNK         0.4970 
     63 O          34.3953    0.4460   -6.4874 O.2       10 UNK        -0.4914 
     64 N          33.3141    0.2448   -8.4794 N.am      11 UNK        -0.4285 
     65 CA         34.1703   -0.7352   -9.1749 C.3       11 UNK         0.1007 
     66 C          35.7050   -0.4777   -9.0619 C.2       11 UNK         0.5703 
     67 N          36.5245   -1.4936   -8.8226 N.am      11 UNK        -0.7361 
     68 O          36.1662    0.6448   -9.2602 O.2       11 UNK        -0.4986 
     69 C69        33.7014   -2.2131   -8.9970 C.3       12 UNK        -0.0947 
     70 S70        33.6506   -2.8231   -7.2760 S.3       12 UNK        -0.2240 
     71 C71        31.8551   -2.8100   -7.0021 C.3       12 UNK         0.0194 
     72 H72        24.5647   -7.1650   -0.6690 H         1 UNK         0.0906 
     73 H73        25.3603   -7.6249    0.8372 H         1 UNK         0.0906 
     74 H74        24.0085   -6.4895    0.8636 H         1 UNK         0.0906 
     75 H75        25.7978   -5.7190   -1.8548 H         1 UNK         0.3140 
     76 H76        28.0134   -4.2858   -0.7945 H         1 UNK         0.1085 
     77 H77        26.5725   -4.0022   -3.4731 H         1 UNK         0.0836 
     78 H78        28.0777   -3.2344   -3.1242 H         1 UNK         0.0836 
     79 H79        30.6632   -6.1688   -3.2772 H         1 UNK         0.0731 
     80 H80        30.1347   -5.2673   -1.8820 H         1 UNK         0.0731 
     81 H81        30.9326   -4.9417   -5.5337 H         1 UNK         0.1312 
     82 H82        31.9505   -0.7920   -5.2119 H         1 UNK         0.1406 
     83 H83        30.3724   -2.8701   -1.8178 H         1 UNK         0.1631 
     84 H84        32.2211   -0.0765   -2.4975 H         1 UNK         0.0717 
     85 H85        30.7813   -0.5500   -1.6250 H         1 UNK         0.0717 
     86 H86        28.5034   -0.6609   -2.9673 H         1 UNK         0.0934 
     87 H87        27.8720    0.9451   -3.1483 H         1 UNK         0.0934 
     88 H88        28.8893   -0.7997   -5.4590 H         1 UNK         0.0739 
     89 H89        26.2918   -0.7310   -4.2480 H         1 UNK         0.3093 
     90 H90        24.3940   -1.5492   -7.1108 H         1 UNK         0.0818 
     91 H91        25.4288   -3.8346   -6.7111 H         1 UNK         0.0819 
     92 H92        25.0316   -3.6638   -5.0068 H         1 UNK         0.0819 
     93 H93        23.7530   -3.6919   -6.2116 H         1 UNK         0.0819 
     94 H94        23.7188   -1.7454   -4.3561 H         1 UNK         0.3041 
     95 H95        23.4919    1.6592   -3.5885 H         1 UNK         0.0784 
     96 H96        21.3732    1.4488   -4.9086 H         1 UNK         0.0793 
     97 H97        21.0820   -0.1357   -4.2043 H         1 UNK         0.0793 
     98 H98        21.0740    1.3053   -3.1856 H         1 UNK         0.0793 
     99 H99        22.4642   -0.4544   -2.0972 H         1 UNK         0.3024 
    100 H100       25.0504   -0.7429   -0.0306 H         1 UNK         0.1171 
    101 H101       22.5578   -0.7380    0.0269 H         1 UNK         0.0786 
    102 H102       22.5090   -2.2406   -0.9005 H         1 UNK         0.0786 
    103 H103       23.1933   -2.2139    0.7182 H         1 UNK         0.0786 
    104 H104       24.6666   -3.3690   -1.3210 H         1 UNK         0.2977 
    105 H105       26.3580    1.7250   -5.1668 H         1 UNK         0.3127 
    106 H106       27.8077    3.7574   -6.5930 H         1 UNK         0.0770 
    107 H107       24.8099    3.5127   -5.9876 H         1 UNK         0.0814 
    108 H108       25.6289    4.9558   -6.5630 H         1 UNK         0.0814 
    109 H109       26.0074    4.3161   -4.9725 H         1 UNK         0.0814 
    110 H110       25.3118    1.3589   -7.5410 H         1 UNK         0.2983 
    111 H111       25.0191    2.1687  -10.2370 H         1 UNK         0.0947 
    112 H112       23.9573   -0.0023  -10.5734 H         1 UNK         0.0806 
    113 H113       23.4966    0.5661   -8.9752 H         1 UNK         0.0806 
    114 H114       24.7345   -0.6808   -9.1565 H         1 UNK         0.0806 
    115 H115       27.3703   -0.0749   -8.7534 H         1 UNK         0.3000 
    116 H116       28.7376   -0.6662  -11.2662 H         1 UNK         0.0850 
    117 H117       30.2544   -1.9469   -9.7478 H         1 UNK         0.0810 
    118 H118       28.5734   -2.3440   -9.4364 H         1 UNK         0.0810 
    119 H119       29.4332   -1.2627   -8.3457 H         1 UNK         0.0810 
    120 H120       28.6489    2.1698   -9.5983 H         1 UNK         0.3040 
    121 H121       29.8913    3.9702   -9.3253 H         1 UNK         0.0766 
    122 H122       31.5111    2.9347  -11.7137 H         1 UNK         0.0812 
    123 H123       31.4230    4.6015  -11.1626 H         1 UNK         0.0812 
    124 H124       29.9933    3.8259  -11.8227 H         1 UNK         0.0812 
    125 H125       30.5326    1.9308   -7.5783 H         1 UNK         0.3205 
    126 H126       31.8651    1.3043   -5.9986 H         1 UNK         0.0754 
    127 H127       33.7196    2.6922   -5.2007 H         1 UNK         0.0769 
    128 H128       32.3932    3.7271   -5.6971 H         1 UNK         0.0769 
    129 H129       33.8103    3.5453   -6.7327 H         1 UNK         0.0769 
    130 H130       32.5381    0.5831   -9.0365 H         1 UNK         0.2981 
    131 H131       33.9811   -0.5151  -10.2263 H         1 UNK         0.0541 
    132 H132       37.5171   -1.3265   -8.7738 H         1 UNK         0.3459 
    133 H133       36.1564   -2.4144   -8.6418 H         1 UNK         0.3459 
    134 H134       34.3291   -2.8881   -9.5806 H         1 UNK         0.0612 
    135 H135       32.7088   -2.3202   -9.4362 H         1 UNK         0.0612 
    136 H136       31.4447   -1.8923   -7.4228 H         1 UNK         0.0624 
    137 H137       31.3969   -3.6368   -7.5469 H         1 UNK         0.0624 
@<TRIPOS>BOND
     1    1    2 1    
     2    1   72 1    
     3    1   73 1    
     4    1   74 1    
     5    2    3 2    
     6    2    4 am   BACKBONE|DICT|INTERRES
     7    4    5 1    
     8    4   75 1    
     9    5    6 1    
    10    5   35 1    
    11    5   76 1    
    12    6    7 1    
    13    6   77 1    
    14    6   78 1    
    15    7    8 1    
    16    8    9 1    
    17    8   79 1    
    18    8   80 1    
    19    9   10 ar   
    20    9   14 ar   
    21   10   11 ar   
    22   10   81 1    
    23   11   12 ar   
    24   11   71 1    
    25   12   13 ar   
    26   12   82 1    
    27   13   14 ar   
    28   13   15 1    
    29   14   83 1    
    30   15   16 1    
    31   15   84 1    
    32   15   85 1    
    33   16   17 1    
    34   17   18 1    
    35   17   86 1    
    36   17   87 1    
    37   18   19 1    
    38   18   37 1    
    39   18   88 1    
    40   19   20 am   BACKBONE|DICT|INTERRES
    41   19   89 1    
    42   20   21 2    
    43   20   22 1    
    44   22   23 1    
    45   22   24 1    
    46   22   90 1    
    47   23   91 1    
    48   23   92 1    
    49   23   93 1    
    50   24   25 am   BACKBONE|DICT|INTERRES
    51   24   94 1    
    52   25   26 2    
    53   25   27 1    
    54   27   28 1    
    55   27   29 1    
    56   27   95 1    
    57   28   96 1    
    58   28   97 1    
    59   28   98 1    
    60   29   30 am   BACKBONE|DICT|INTERRES
    61   29   99 1    
    62   30   31 2    
    63   30   32 1    
    64   32   33 1    
    65   32   34 1    
    66   32  100 1    
    67   33  101 1    
    68   33  102 1    
    69   33  103 1    
    70   34   35 am   BACKBONE|DICT|INTERRES
    71   34  104 1    
    72   35   36 2    
    73   37   38 2    
    74   37   39 am   BACKBONE|DICT|INTERRES
    75   39   40 1    
    76   39  105 1    
    77   40   41 1    
    78   40   42 1    
    79   40  106 1    
    80   41  107 1    
    81   41  108 1    
    82   41  109 1    
    83   42   43 2    
    84   42   44 am   BACKBONE|DICT|INTERRES
    85   44   45 1    
    86   44  110 1    
    87   45   46 1    
    88   45   47 1    
    89   45  111 1    
    90   46  112 1    
    91   46  113 1    
    92   46  114 1    
    93   47   48 2    
    94   47   49 am   BACKBONE|DICT|INTERRES
    95   49   50 1    
    96   49  115 1    
    97   50   51 1    
    98   50   52 1    
    99   50  116 1    
   100   51  117 1    
   101   51  118 1    
   102   51  119 1    
   103   52   53 2    
   104   52   54 am   BACKBONE|DICT|INTERRES
   105   54   55 1    
   106   54  120 1    
   107   55   56 1    
   108   55   57 1    
   109   55  121 1    
   110   56  122 1    
   111   56  123 1    
   112   56  124 1    
   113   57   58 2    
   114   57   59 am   BACKBONE|DICT|INTERRES
   115   59   60 1    
   116   59  125 1    
   117   60   61 1    
   118   60   62 1    
   119   60  126 1    
   120   61  127 1    
   121   61  128 1    
   122   61  129 1    
   123   62   63 2    
   124   62   64 am   BACKBONE|DICT|INTERRES
   125   64   65 1    
   126   64  130 1    
   127   65   66 1    
   128   65   69 1    
   129   65  131 1    
   130   66   67 am   BACKBONE|DICT|INTERRES
   131   66   68 2    
   132   67  132 1    
   133   67  133 1    
   134   69   70 1    
   135   69  134 1    
   136   69  135 1    
   137   70   71 1    
   138   71  136 1    
   139   71  137 1    
@<TRIPOS>SUBSTRUCTURE
     1 UNK         1 GROUP             0       ****    0 ROOT    
