@<TRIPOS>MOLECULE
3R137
137   139    1
SMALL
USER_CHARGES


@<TRIPOS>ATOM
      1 CA         22.9133   -5.2513   -2.4873 C.3       0 UNK        -0.2020 
      2 C          24.2320   -5.0651   -1.7514 C.2       0 UNK         0.4855 
      3 O          24.4413   -5.6753   -0.7028 O.2       0 UNK        -0.5197 
      4 N          25.1205   -4.2261   -2.2911 N.am      1 UNK        -0.4892 
      5 CA         26.4246   -3.8864   -1.7277 C.3       1 UNK         0.0835 
      6 C6         27.4909   -4.9641   -2.0590 C.3       12 UNK        -0.0855 
      7 S7         28.9815   -4.8368   -1.0098 S.3       12 UNK        -0.2931 
      8 C8         30.3119   -5.3128   -2.1622 C.3       12 UNK         0.0378 
      9 C9         30.5436   -4.2711   -3.2488 C.ar      12 UNK        -0.0802 
     10 C10        31.2114   -3.0785   -2.9516 C.ar      12 UNK        -0.0944 
     11 C11        31.4330   -2.1240   -3.9489 C.ar      12 UNK        -0.0787 
     12 C12        30.9676   -2.3616   -5.2440 C.ar      12 UNK        -0.0862 
     13 C13        30.3111   -3.5535   -5.5600 C.ar      12 UNK        -0.0733 
     14 C14        30.1152   -4.5113   -4.5585 C.ar      12 UNK        -0.0832 
     15 C15        29.8262   -3.7877   -6.9887 C.3       12 UNK         0.0240 
     16 S16        28.1280   -4.4529   -7.1027 S.3       12 UNK        -0.2522 
     17 C17        27.1849   -3.3237   -6.0248 C.3       12 UNK        -0.0967 
     18 CA         26.4667   -2.1862   -6.7852 C.3       5 UNK         0.0660 
     19 N          25.3405   -1.6652   -6.0094 N.am      5 UNK        -0.4015 
     20 C          24.3050   -0.9973   -6.5359 C.2       4 UNK         0.4946 
     21 O          24.1585   -0.8014   -7.7422 O.2       4 UNK        -0.5353 
     22 CA         23.2681   -0.4319   -5.5497 C.3       4 UNK         0.0277 
     23 CB         22.2310   -1.5058   -5.1826 C.3       4 UNK        -0.1981 
     24 N          23.8619    0.1146   -4.3249 N.am      4 UNK        -0.4209 
     25 C          24.6819    1.1751   -4.2839 C.2       3 UNK         0.4942 
     26 O          25.0523    1.7940   -5.2801 O.2       3 UNK        -0.5208 
     27 CA         25.2463    1.5532   -2.9124 C.3       3 UNK         0.0250 
     28 CB         24.1642    1.6818   -1.8237 C.3       3 UNK        -0.1990 
     29 N          26.2170    0.5290   -2.5538 N.am      3 UNK        -0.4232 
     30 C          27.3833    0.7091   -1.9344 C.2       2 UNK         0.4993 
     31 O          27.7362    1.7871   -1.4537 O.2       2 UNK        -0.5286 
     32 CA         28.3261   -0.5166   -1.8761 C.3       2 UNK         0.0209 
     33 CB         29.5103   -0.2912   -0.9169 C.3       2 UNK        -0.1931 
     34 N          27.6873   -1.7953   -1.5333 N.am      2 UNK        -0.4546 
     35 C          26.8052   -2.4942   -2.2604 C.2       1 UNK         0.5154 
     36 O          26.2940   -2.0812   -3.3103 O.2       1 UNK        -0.5181 
     37 C          27.4341   -1.0496   -7.1690 C.2       5 UNK         0.5014 
     38 O          27.9089   -1.0160   -8.3041 O.2       5 UNK        -0.5248 
     39 N          27.6723   -0.1073   -6.2419 N.am      6 UNK        -0.4434 
     40 CA         28.5319    1.0631   -6.4539 C.3       6 UNK         0.0363 
     41 CB         28.7464    1.8133   -5.1314 C.3       6 UNK        -0.1936 
     42 C          28.0202    2.0174   -7.5480 C.2       6 UNK         0.5081 
     43 O          28.8281    2.6709   -8.2047 O.2       6 UNK        -0.5248 
     44 N          26.6979    2.0556   -7.7576 N.am      7 UNK        -0.4718 
     45 CA         26.0564    2.7560   -8.8718 C.3       7 UNK         0.0273 
     46 CB         24.5386    2.7960   -8.6336 C.3       7 UNK        -0.1935 
     47 C          26.3726    2.1402  -10.2499 C.2       7 UNK         0.5018 
     48 O          26.3094    2.8592  -11.2481 O.2       7 UNK        -0.5186 
     49 N          26.7010    0.8403  -10.2889 N.am      8 UNK        -0.4240 
     50 CA         27.0974    0.1202  -11.4993 C.3       8 UNK         0.0235 
     51 CB         26.5543   -1.3184  -11.4501 C.3       8 UNK        -0.2000 
     52 C          28.6232    0.1249  -11.6786 C.2       8 UNK         0.4941 
     53 O          29.0942    0.3932  -12.7848 O.2       8 UNK        -0.5273 
     54 N          29.3673   -0.1662  -10.6038 N.am      9 UNK        -0.4262 
     55 CA         30.8269   -0.2253  -10.5876 C.3       9 UNK         0.0264 
     56 CB         31.2895   -1.6603  -10.9042 C.3       9 UNK        -0.1955 
     57 C          31.3169    0.2475   -9.2157 C.2       9 UNK         0.5031 
     58 O          31.3035   -0.5348   -8.2652 O.2       9 UNK        -0.5390 
     59 N          31.7021    1.5260   -9.1254 N.am      10 UNK        -0.4204 
     60 CA         32.1520    2.1757   -7.8922 C.3       10 UNK         0.0237 
     61 CB         32.2416    3.6931   -8.1243 C.3       10 UNK        -0.1985 
     62 C          33.4996    1.6337   -7.3900 C.2       10 UNK         0.4970 
     63 O          34.4002    1.3887   -8.1965 O.2       10 UNK        -0.4914 
     64 N          33.6198    1.5124   -6.0638 N.am      11 UNK        -0.4285 
     65 CA         34.8759    1.2158   -5.3627 C.3       11 UNK         0.1007 
     66 C          35.7853    2.4714   -5.2738 C.2       11 UNK         0.5703 
     67 N          37.0979    2.2850   -5.2492 N.am      11 UNK        -0.7361 
     68 O          35.3148    3.6052   -5.1916 O.2       11 UNK        -0.4986 
     69 C69        34.6084    0.6198   -3.9554 C.3       12 UNK        -0.0947 
     70 S70        33.9620   -1.0802   -4.0579 S.3       12 UNK        -0.2240 
     71 C71        32.2057   -0.8500   -3.6503 C.3       12 UNK         0.0194 
     72 H72        22.0856   -4.9085   -1.8669 H         1 UNK         0.0906 
     73 H73        22.8868   -4.6979   -3.4257 H         1 UNK         0.0906 
     74 H74        22.7558   -6.3056   -2.7131 H         1 UNK         0.0906 
     75 H75        24.8993   -3.7042   -3.1293 H         1 UNK         0.3140 
     76 H76        26.3129   -3.8079   -0.6436 H         1 UNK         0.1085 
     77 H77        27.0775   -5.9600   -1.8925 H         1 UNK         0.0836 
     78 H78        27.7551   -4.9302   -3.1166 H         1 UNK         0.0836 
     79 H79        31.2341   -5.4485   -1.5953 H         1 UNK         0.0731 
     80 H80        30.0791   -6.2858   -2.5982 H         1 UNK         0.0731 
     81 H81        31.5692   -2.9016   -1.9467 H         1 UNK         0.1312 
     82 H82        31.1397   -1.6217   -6.0128 H         1 UNK         0.1406 
     83 H83        29.6140   -5.4391   -4.7986 H         1 UNK         0.1631 
     84 H84        29.8699   -2.8614   -7.5638 H         1 UNK         0.0717 
     85 H85        30.5080   -4.4824   -7.4802 H         1 UNK         0.0717 
     86 H86        26.4454   -3.9483   -5.5209 H         1 UNK         0.0934 
     87 H87        27.8120   -2.9284   -5.2261 H         1 UNK         0.0934 
     88 H88        26.0638   -2.6008   -7.7124 H         1 UNK         0.0739 
     89 H89        25.4041   -1.7807   -5.0034 H         1 UNK         0.3093 
     90 H90        22.7486    0.3842   -6.0569 H         1 UNK         0.0818 
     91 H91        21.4336   -1.0927   -4.5646 H         1 UNK         0.0819 
     92 H92        21.7624   -1.9170   -6.0781 H         1 UNK         0.0819 
     93 H93        22.6809   -2.3375   -4.6395 H         1 UNK         0.0819 
     94 H94        23.6083   -0.3359   -3.4578 H         1 UNK         0.3041 
     95 H95        25.7489    2.5171   -3.0202 H         1 UNK         0.0784 
     96 H96        23.3824    2.3784   -2.1293 H         1 UNK         0.0793 
     97 H97        23.6882    0.7279   -1.5956 H         1 UNK         0.0793 
     98 H98        24.5916    2.0636   -0.8963 H         1 UNK         0.0793 
     99 H99        26.0405   -0.4085   -2.9114 H         1 UNK         0.3024 
    100 H100       28.7395   -0.6323   -2.8802 H         1 UNK         0.1171 
    101 H101       29.1714   -0.1309    0.1073 H         1 UNK         0.0786 
    102 H102       30.1905   -1.1423   -0.9137 H         1 UNK         0.0786 
    103 H103       30.0936    0.5831   -1.2093 H         1 UNK         0.0786 
    104 H104       28.0323   -2.2319   -0.6898 H         1 UNK         0.2977 
    105 H105       27.2143   -0.1829   -5.3476 H         1 UNK         0.3127 
    106 H106       29.4999    0.6864   -6.7840 H         1 UNK         0.0770 
    107 H107       27.8050    2.1613   -4.7059 H         1 UNK         0.0814 
    108 H108       29.3763    2.6914   -5.2813 H         1 UNK         0.0814 
    109 H109       29.2470    1.1861   -4.3952 H         1 UNK         0.0814 
    110 H110       26.0887    1.5754   -7.1043 H         1 UNK         0.2983 
    111 H111       26.4291    3.7827   -8.8811 H         1 UNK         0.0947 
    112 H112       24.0330    3.3504   -9.4254 H         1 UNK         0.0806 
    113 H113       24.2976    3.2856   -7.6896 H         1 UNK         0.0806 
    114 H114       24.1081    1.7944   -8.6100 H         1 UNK         0.0806 
    115 H115       26.7800    0.3312   -9.4162 H         1 UNK         0.3000 
    116 H116       26.6580    0.6067  -12.3731 H         1 UNK         0.0850 
    117 H117       26.9644   -1.8852  -10.6139 H         1 UNK         0.0810 
    118 H118       26.8067   -1.8594  -12.3630 H         1 UNK         0.0810 
    119 H119       25.4682   -1.3274  -11.3574 H         1 UNK         0.0810 
    120 H120       28.9053   -0.3959   -9.7237 H         1 UNK         0.3040 
    121 H121       31.2380    0.4439  -11.3467 H         1 UNK         0.0766 
    122 H122       30.8679   -2.3833  -10.2045 H         1 UNK         0.0812 
    123 H123       32.3755   -1.7417  -10.8451 H         1 UNK         0.0812 
    124 H124       30.9945   -1.9584  -11.9103 H         1 UNK         0.0812 
    125 H125       31.6800    2.1013   -9.9544 H         1 UNK         0.3205 
    126 H126       31.3972    1.9944   -7.1258 H         1 UNK         0.0754 
    127 H127       32.5537    4.2104   -7.2158 H         1 UNK         0.0769 
    128 H128       31.2755    4.1071   -8.4148 H         1 UNK         0.0769 
    129 H129       32.9632    3.9407   -8.9041 H         1 UNK         0.0769 
    130 H130       32.8480    1.7873   -5.4767 H         1 UNK         0.2981 
    131 H131       35.4181    0.4694   -5.9477 H         1 UNK         0.0541 
    132 H132       37.7051    3.0866   -5.1781 H         1 UNK         0.3459 
    133 H133       37.4948    1.3596   -5.3034 H         1 UNK         0.3459 
    134 H134       35.5333    0.5664   -3.3778 H         1 UNK         0.0612 
    135 H135       33.9286    1.2509   -3.3801 H         1 UNK         0.0612 
    136 H136       31.7956   -0.0231   -4.2319 H         1 UNK         0.0624 
    137 H137       32.1091   -0.5756   -2.5991 H         1 UNK         0.0624 
@<TRIPOS>BOND
     1    1    2 1    
     2    1   72 1    
     3    1   73 1    
     4    1   74 1    
     5    2    3 2    
     6    2    4 am   BACKBONE|DICT|INTERRES
     7    4    5 1    
     8    4   75 1    
     9    5    6 1    
    10    5   35 1    
    11    5   76 1    
    12    6    7 1    
    13    6   77 1    
    14    6   78 1    
    15    7    8 1    
    16    8    9 1    
    17    8   79 1    
    18    8   80 1    
    19    9   10 ar   
    20    9   14 ar   
    21   10   11 ar   
    22   10   81 1    
    23   11   12 ar   
    24   11   71 1    
    25   12   13 ar   
    26   12   82 1    
    27   13   14 ar   
    28   13   15 1    
    29   14   83 1    
    30   15   16 1    
    31   15   84 1    
    32   15   85 1    
    33   16   17 1    
    34   17   18 1    
    35   17   86 1    
    36   17   87 1    
    37   18   19 1    
    38   18   37 1    
    39   18   88 1    
    40   19   20 am   BACKBONE|DICT|INTERRES
    41   19   89 1    
    42   20   21 2    
    43   20   22 1    
    44   22   23 1    
    45   22   24 1    
    46   22   90 1    
    47   23   91 1    
    48   23   92 1    
    49   23   93 1    
    50   24   25 am   BACKBONE|DICT|INTERRES
    51   24   94 1    
    52   25   26 2    
    53   25   27 1    
    54   27   28 1    
    55   27   29 1    
    56   27   95 1    
    57   28   96 1    
    58   28   97 1    
    59   28   98 1    
    60   29   30 am   BACKBONE|DICT|INTERRES
    61   29   99 1    
    62   30   31 2    
    63   30   32 1    
    64   32   33 1    
    65   32   34 1    
    66   32  100 1    
    67   33  101 1    
    68   33  102 1    
    69   33  103 1    
    70   34   35 am   BACKBONE|DICT|INTERRES
    71   34  104 1    
    72   35   36 2    
    73   37   38 2    
    74   37   39 am   BACKBONE|DICT|INTERRES
    75   39   40 1    
    76   39  105 1    
    77   40   41 1    
    78   40   42 1    
    79   40  106 1    
    80   41  107 1    
    81   41  108 1    
    82   41  109 1    
    83   42   43 2    
    84   42   44 am   BACKBONE|DICT|INTERRES
    85   44   45 1    
    86   44  110 1    
    87   45   46 1    
    88   45   47 1    
    89   45  111 1    
    90   46  112 1    
    91   46  113 1    
    92   46  114 1    
    93   47   48 2    
    94   47   49 am   BACKBONE|DICT|INTERRES
    95   49   50 1    
    96   49  115 1    
    97   50   51 1    
    98   50   52 1    
    99   50  116 1    
   100   51  117 1    
   101   51  118 1    
   102   51  119 1    
   103   52   53 2    
   104   52   54 am   BACKBONE|DICT|INTERRES
   105   54   55 1    
   106   54  120 1    
   107   55   56 1    
   108   55   57 1    
   109   55  121 1    
   110   56  122 1    
   111   56  123 1    
   112   56  124 1    
   113   57   58 2    
   114   57   59 am   BACKBONE|DICT|INTERRES
   115   59   60 1    
   116   59  125 1    
   117   60   61 1    
   118   60   62 1    
   119   60  126 1    
   120   61  127 1    
   121   61  128 1    
   122   61  129 1    
   123   62   63 2    
   124   62   64 am   BACKBONE|DICT|INTERRES
   125   64   65 1    
   126   64  130 1    
   127   65   66 1    
   128   65   69 1    
   129   65  131 1    
   130   66   67 am   BACKBONE|DICT|INTERRES
   131   66   68 2    
   132   67  132 1    
   133   67  133 1    
   134   69   70 1    
   135   69  134 1    
   136   69  135 1    
   137   70   71 1    
   138   71  136 1    
   139   71  137 1    
@<TRIPOS>SUBSTRUCTURE
     1 UNK         1 GROUP             0       ****    0 ROOT    
