@<TRIPOS>MOLECULE
3R137
137   139    1
SMALL
USER_CHARGES


@<TRIPOS>ATOM
      1 CA         24.4958   -6.5526   -3.5468 C.3       0 UNK        -0.2020 
      2 C          25.5320   -5.4719   -3.2799 C.2       0 UNK         0.4855 
      3 O          25.8759   -4.7204   -4.1913 O.2       0 UNK        -0.5197 
      4 N          26.0191   -5.3791   -2.0339 N.am      1 UNK        -0.4892 
      5 CA         27.0344   -4.4215   -1.5709 C.3       1 UNK         0.0835 
      6 C6         28.4363   -4.7166   -2.1783 C.3       12 UNK        -0.0855 
      7 S7         29.7928   -4.3046   -1.0324 S.3       12 UNK        -0.2931 
      8 C8         31.1276   -3.8241   -2.1859 C.3       12 UNK         0.0378 
      9 C9         31.0140   -2.4060   -2.7456 C.ar      12 UNK        -0.0802 
     10 C10        31.4841   -2.1338   -4.0351 C.ar      12 UNK        -0.0944 
     11 C11        31.4421   -0.8340   -4.5517 C.ar      12 UNK        -0.0787 
     12 C12        30.9111    0.1995   -3.7760 C.ar      12 UNK        -0.0862 
     13 C13        30.4322   -0.0564   -2.4900 C.ar      12 UNK        -0.0733 
     14 C14        30.5004   -1.3552   -1.9772 C.ar      12 UNK        -0.0832 
     15 C15        29.8553    1.0640   -1.6388 C.3       12 UNK         0.0240 
     16 S16        28.0953    0.7763   -1.2846 S.3       12 UNK        -0.2522 
     17 C17        27.2366    1.8642   -2.4650 C.3       12 UNK        -0.0967 
     18 CA         27.5042    1.6295   -3.9783 C.3       5 UNK         0.0660 
     19 N          27.3729    0.2360   -4.4237 N.am      5 UNK        -0.4015 
     20 C          27.6746   -0.1926   -5.6632 C.2       4 UNK         0.4946 
     21 O          28.2035    0.5087   -6.5291 O.2       4 UNK        -0.5353 
     22 CA         27.2763   -1.6315   -6.0329 C.3       4 UNK         0.0277 
     23 CB         28.3765   -2.6204   -5.6272 C.3       4 UNK        -0.1981 
     24 N          25.9955   -2.0339   -5.4462 N.am      4 UNK        -0.4209 
     25 C          24.8169   -1.4698   -5.7520 C.2       3 UNK         0.4942 
     26 O          24.6781   -0.5988   -6.6084 O.2       3 UNK        -0.5208 
     27 CA         23.5942   -1.8967   -4.9252 C.3       3 UNK         0.0250 
     28 CB         22.9764   -3.1940   -5.4701 C.3       3 UNK        -0.1990 
     29 N          23.9163   -2.0396   -3.5043 N.am      3 UNK        -0.4232 
     30 C          24.2668   -1.0168   -2.7102 C.2       2 UNK         0.4993 
     31 O          24.2845    0.1579   -3.0792 O.2       2 UNK        -0.5286 
     32 CA         24.7075   -1.3617   -1.2772 C.3       2 UNK         0.0209 
     33 CB         23.5065   -1.3201   -0.3195 C.3       2 UNK        -0.1931 
     34 N          25.3793   -2.6620   -1.1670 N.am      2 UNK        -0.4546 
     35 C          26.5477   -2.9646   -1.7540 C.2       1 UNK         0.5154 
     36 O          27.1665   -2.1722   -2.4638 O.2       1 UNK        -0.5181 
     37 C          26.5871    2.5620   -4.7946 C.2       5 UNK         0.5014 
     38 O          27.0633    3.5631   -5.3305 O.2       5 UNK        -0.5248 
     39 N          25.2919    2.2157   -4.8643 N.am      6 UNK        -0.4434 
     40 CA         24.2476    2.9897   -5.5412 C.3       6 UNK         0.0363 
     41 CB         22.8731    2.3726   -5.2379 C.3       6 UNK        -0.1936 
     42 C          24.4617    3.1150   -7.0580 C.2       6 UNK         0.5081 
     43 O          24.2732    4.2005   -7.6078 O.2       6 UNK        -0.5248 
     44 N          24.8640    2.0131   -7.7042 N.am      7 UNK        -0.4718 
     45 CA         25.1901    1.9640   -9.1313 C.3       7 UNK         0.0273 
     46 CB         25.1904    0.4979   -9.5952 C.3       7 UNK        -0.1935 
     47 C          26.5380    2.6215   -9.4741 C.2       7 UNK         0.5018 
     48 O          26.7503    2.9541  -10.6408 O.2       7 UNK        -0.5186 
     49 N          27.4202    2.7656   -8.4715 N.am      8 UNK        -0.4240 
     50 CA         28.8232    3.1843   -8.5674 C.3       8 UNK         0.0235 
     51 CB         28.9363    4.6632   -8.9943 C.3       8 UNK        -0.2000 
     52 C          29.6202    2.2209   -9.4662 C.2       8 UNK         0.4941 
     53 O          30.2088    2.6411  -10.4655 O.2       8 UNK        -0.5273 
     54 N          29.5606    0.9288   -9.1149 N.am      9 UNK        -0.4262 
     55 CA         30.1566   -0.1779   -9.8670 C.3       9 UNK         0.0264 
     56 CB         29.6572   -1.5045   -9.2732 C.3       9 UNK        -0.1955 
     57 C          31.6953   -0.1323   -9.8948 C.2       9 UNK         0.5031 
     58 O          32.3188    0.4841   -9.0274 O.2       9 UNK        -0.5390 
     59 N          32.2869   -0.8191  -10.8804 N.am      10 UNK        -0.4204 
     60 CA         33.7313   -0.8876  -11.1279 C.3       10 UNK         0.0237 
     61 CB         33.9630   -1.2796  -12.6002 C.3       10 UNK        -0.1985 
     62 C          34.4763   -1.8142  -10.1426 C.2       10 UNK         0.4970 
     63 O          35.1643   -2.7435  -10.5692 O.2       10 UNK        -0.4914 
     64 N          34.3310   -1.5425   -8.8417 N.am      11 UNK        -0.4285 
     65 CA         35.0499   -2.2105   -7.7444 C.3       11 UNK         0.1007 
     66 C          36.5385   -1.7807   -7.5822 C.2       11 UNK         0.5703 
     67 N          37.0091   -0.7335   -8.2503 N.am      11 UNK        -0.7361 
     68 O          37.2860   -2.4231   -6.8481 O.2       11 UNK        -0.4986 
     69 C69        34.2670   -2.1262   -6.4058 C.3       12 UNK        -0.0947 
     70 S70        33.7929   -0.4220   -5.9414 S.3       12 UNK        -0.2240 
     71 C71        31.9757   -0.5328   -5.9426 C.3       12 UNK         0.0194 
     72 H72        24.8365   -7.2058   -4.3497 H         1 UNK         0.0906 
     73 H73        24.3092   -7.1674   -2.6665 H         1 UNK         0.0906 
     74 H74        23.5524   -6.1016   -3.8526 H         1 UNK         0.0906 
     75 H75        25.6833   -6.0227   -1.3297 H         1 UNK         0.3140 
     76 H76        27.1009   -4.5775   -0.4926 H         1 UNK         0.1085 
     77 H77        28.5753   -4.2219   -3.1384 H         1 UNK         0.0836 
     78 H78        28.5321   -5.7824   -2.3911 H         1 UNK         0.0836 
     79 H79        31.1680   -4.5531   -2.9970 H         1 UNK         0.0731 
     80 H80        32.0788   -3.9009   -1.6580 H         1 UNK         0.0731 
     81 H81        31.8983   -2.9326   -4.6338 H         1 UNK         0.1312 
     82 H82        30.8758    1.2039   -4.1743 H         1 UNK         0.1406 
     83 H83        30.1385   -1.5429   -0.9760 H         1 UNK         0.1631 
     84 H84        29.9907    2.0379   -2.1114 H         1 UNK         0.0717 
     85 H85        30.3998    1.1038   -0.6945 H         1 UNK         0.0717 
     86 H86        26.1729    1.7675   -2.2425 H         1 UNK         0.0934 
     87 H87        27.4923    2.8928   -2.2026 H         1 UNK         0.0934 
     88 H88        28.5323    1.9294   -4.1865 H         1 UNK         0.0739 
     89 H89        27.0303   -0.4349   -3.7442 H         1 UNK         0.3093 
     90 H90        27.1633   -1.6770   -7.1179 H         1 UNK         0.0818 
     91 H91        28.0802   -3.6538   -5.8077 H         1 UNK         0.0819 
     92 H92        29.2923   -2.4386   -6.1876 H         1 UNK         0.0819 
     93 H93        28.6285   -2.5164   -4.5735 H         1 UNK         0.0819 
     94 H94        26.0217   -2.7780   -4.7545 H         1 UNK         0.3041 
     95 H95        22.8443   -1.1078   -5.0149 H         1 UNK         0.0784 
     96 H96        22.6620   -3.0642   -6.5065 H         1 UNK         0.0793 
     97 H97        23.6816   -4.0241   -5.4505 H         1 UNK         0.0793 
     98 H98        22.0947   -3.4860   -4.8994 H         1 UNK         0.0793 
     99 H99        23.9605   -2.9764   -3.1322 H         1 UNK         0.3024 
    100 H100       25.4193   -0.5934   -0.9677 H         1 UNK         0.1171 
    101 H101       23.8182   -1.4677    0.7147 H         1 UNK         0.0786 
    102 H102       23.0031   -0.3533   -0.3687 H         1 UNK         0.0786 
    103 H103       22.7677   -2.0850   -0.5619 H         1 UNK         0.0786 
    104 H104       24.9125   -3.3733   -0.6227 H         1 UNK         0.2977 
    105 H105       24.9823    1.3876   -4.3586 H         1 UNK         0.3127 
    106 H106       24.2663    3.9982   -5.1228 H         1 UNK         0.0770 
    107 H107       22.8002    1.3502   -5.6103 H         1 UNK         0.0814 
    108 H108       22.0738    2.9490   -5.7056 H         1 UNK         0.0814 
    109 H109       22.6748    2.3522   -4.1661 H         1 UNK         0.0814 
    110 H110       24.9288    1.1346   -7.1911 H         1 UNK         0.2983 
    111 H111       24.4136    2.4993   -9.6823 H         1 UNK         0.0947 
    112 H112       25.9547   -0.0857   -9.0798 H         1 UNK         0.0806 
    113 H113       25.3895    0.4246  -10.6653 H         1 UNK         0.0806 
    114 H114       24.2265    0.0229   -9.4112 H         1 UNK         0.0806 
    115 H115       27.1354    2.4390   -7.5565 H         1 UNK         0.3000 
    116 H116       29.2415    3.0952   -7.5632 H         1 UNK         0.0850 
    117 H117       28.3770    5.3118   -8.3201 H         1 UNK         0.0810 
    118 H118       28.5623    4.8272  -10.0053 H         1 UNK         0.0810 
    119 H119       29.9757    4.9931   -8.9760 H         1 UNK         0.0810 
    120 H120       29.0774    0.6939   -8.2507 H         1 UNK         0.3040 
    121 H121       29.7993   -0.1020  -10.8962 H         1 UNK         0.0766 
    122 H122       30.0477   -2.3608   -9.8244 H         1 UNK         0.0812 
    123 H123       28.5694   -1.5690   -9.3067 H         1 UNK         0.0812 
    124 H124       29.9665   -1.6165   -8.2358 H         1 UNK         0.0812 
    125 H125       31.7030   -1.3347  -11.5235 H         1 UNK         0.3205 
    126 H126       34.1469    0.1129  -10.9891 H         1 UNK         0.0754 
    127 H127       35.0269   -1.2870  -12.8414 H         1 UNK         0.0769 
    128 H128       33.4867   -0.5720  -13.2793 H         1 UNK         0.0769 
    129 H129       33.5711   -2.2734  -12.8209 H         1 UNK         0.0769 
    130 H130       33.7365   -0.7596   -8.5814 H         1 UNK         0.2981 
    131 H131       35.0974   -3.2707   -8.0005 H         1 UNK         0.0541 
    132 H132       37.9761   -0.4719   -8.1403 H         1 UNK         0.3459 
    133 H133       36.4034   -0.1926   -8.8453 H         1 UNK         0.3459 
    134 H134       33.3734   -2.7451   -6.4852 H         1 UNK         0.0612 
    135 H135       34.8414   -2.5606   -5.5857 H         1 UNK         0.0612 
    136 H136       31.5705    0.4135   -6.3049 H         1 UNK         0.0624 
    137 H137       31.6384   -1.2895   -6.6499 H         1 UNK         0.0624 
@<TRIPOS>BOND
     1    1    2 1    
     2    1   72 1    
     3    1   73 1    
     4    1   74 1    
     5    2    3 2    
     6    2    4 am   BACKBONE|DICT|INTERRES
     7    4    5 1    
     8    4   75 1    
     9    5    6 1    
    10    5   35 1    
    11    5   76 1    
    12    6    7 1    
    13    6   77 1    
    14    6   78 1    
    15    7    8 1    
    16    8    9 1    
    17    8   79 1    
    18    8   80 1    
    19    9   10 ar   
    20    9   14 ar   
    21   10   11 ar   
    22   10   81 1    
    23   11   12 ar   
    24   11   71 1    
    25   12   13 ar   
    26   12   82 1    
    27   13   14 ar   
    28   13   15 1    
    29   14   83 1    
    30   15   16 1    
    31   15   84 1    
    32   15   85 1    
    33   16   17 1    
    34   17   18 1    
    35   17   86 1    
    36   17   87 1    
    37   18   19 1    
    38   18   37 1    
    39   18   88 1    
    40   19   20 am   BACKBONE|DICT|INTERRES
    41   19   89 1    
    42   20   21 2    
    43   20   22 1    
    44   22   23 1    
    45   22   24 1    
    46   22   90 1    
    47   23   91 1    
    48   23   92 1    
    49   23   93 1    
    50   24   25 am   BACKBONE|DICT|INTERRES
    51   24   94 1    
    52   25   26 2    
    53   25   27 1    
    54   27   28 1    
    55   27   29 1    
    56   27   95 1    
    57   28   96 1    
    58   28   97 1    
    59   28   98 1    
    60   29   30 am   BACKBONE|DICT|INTERRES
    61   29   99 1    
    62   30   31 2    
    63   30   32 1    
    64   32   33 1    
    65   32   34 1    
    66   32  100 1    
    67   33  101 1    
    68   33  102 1    
    69   33  103 1    
    70   34   35 am   BACKBONE|DICT|INTERRES
    71   34  104 1    
    72   35   36 2    
    73   37   38 2    
    74   37   39 am   BACKBONE|DICT|INTERRES
    75   39   40 1    
    76   39  105 1    
    77   40   41 1    
    78   40   42 1    
    79   40  106 1    
    80   41  107 1    
    81   41  108 1    
    82   41  109 1    
    83   42   43 2    
    84   42   44 am   BACKBONE|DICT|INTERRES
    85   44   45 1    
    86   44  110 1    
    87   45   46 1    
    88   45   47 1    
    89   45  111 1    
    90   46  112 1    
    91   46  113 1    
    92   46  114 1    
    93   47   48 2    
    94   47   49 am   BACKBONE|DICT|INTERRES
    95   49   50 1    
    96   49  115 1    
    97   50   51 1    
    98   50   52 1    
    99   50  116 1    
   100   51  117 1    
   101   51  118 1    
   102   51  119 1    
   103   52   53 2    
   104   52   54 am   BACKBONE|DICT|INTERRES
   105   54   55 1    
   106   54  120 1    
   107   55   56 1    
   108   55   57 1    
   109   55  121 1    
   110   56  122 1    
   111   56  123 1    
   112   56  124 1    
   113   57   58 2    
   114   57   59 am   BACKBONE|DICT|INTERRES
   115   59   60 1    
   116   59  125 1    
   117   60   61 1    
   118   60   62 1    
   119   60  126 1    
   120   61  127 1    
   121   61  128 1    
   122   61  129 1    
   123   62   63 2    
   124   62   64 am   BACKBONE|DICT|INTERRES
   125   64   65 1    
   126   64  130 1    
   127   65   66 1    
   128   65   69 1    
   129   65  131 1    
   130   66   67 am   BACKBONE|DICT|INTERRES
   131   66   68 2    
   132   67  132 1    
   133   67  133 1    
   134   69   70 1    
   135   69  134 1    
   136   69  135 1    
   137   70   71 1    
   138   71  136 1    
   139   71  137 1    
@<TRIPOS>SUBSTRUCTURE
     1 UNK         1 GROUP             0       ****    0 ROOT    
