@<TRIPOS>MOLECULE
3R137
137   139    1
SMALL
USER_CHARGES


@<TRIPOS>ATOM
      1 CA         24.7981   -6.1299   -5.2748 C.3       0 UNK        -0.2020 
      2 C          25.4945   -5.2525   -4.2466 C.2       0 UNK         0.4855 
      3 O          25.9157   -4.1449   -4.5798 O.2       0 UNK        -0.5197 
      4 N          25.6110   -5.7331   -2.9998 N.am      1 UNK        -0.4892 
      5 CA         26.2292   -5.0384   -1.8615 C.3       1 UNK         0.0835 
      6 C6         27.7749   -4.9337   -2.0181 C.3       12 UNK        -0.0855 
      7 S7         28.6134   -4.7268   -0.4127 S.3       12 UNK        -0.2931 
      8 C8         30.3608   -4.9023   -0.8931 C.3       12 UNK         0.0378 
      9 C9         30.8965   -3.6940   -1.6532 C.ar      12 UNK        -0.0802 
     10 C10        31.5189   -3.8645   -2.8941 C.ar      12 UNK        -0.0944 
     11 C11        32.0933   -2.7756   -3.5576 C.ar      12 UNK        -0.0787 
     12 C12        32.0338   -1.5081   -2.9727 C.ar      12 UNK        -0.0862 
     13 C13        31.3702   -1.3118   -1.7585 C.ar      12 UNK        -0.0733 
     14 C14        30.8192   -2.4129   -1.0955 C.ar      12 UNK        -0.0832 
     15 C15        31.2519    0.0838   -1.1527 C.3       12 UNK         0.0240 
     16 S16        30.7168    1.3590   -2.3491 S.3       12 UNK        -0.2522 
     17 C17        29.1135    0.7099   -2.9302 C.3       12 UNK        -0.0967 
     18 CA         28.9245    0.9033   -4.4601 C.3       5 UNK         0.0660 
     19 N          28.1183   -0.1659   -5.0523 N.am      5 UNK        -0.4015 
     20 C          27.9357   -0.3691   -6.3650 C.2       4 UNK         0.4946 
     21 O          28.4740    0.2910   -7.2524 O.2       4 UNK        -0.5353 
     22 CA         26.9495   -1.4771   -6.7600 C.3       4 UNK         0.0277 
     23 CB         27.6873   -2.8166   -6.9084 C.3       4 UNK        -0.1981 
     24 N          25.8381   -1.6120   -5.8134 N.am      4 UNK        -0.4209 
     25 C          24.9041   -0.6682   -5.6185 C.2       3 UNK         0.4942 
     26 O          24.8703    0.3971   -6.2341 O.2       3 UNK        -0.5208 
     27 CA         23.8677   -0.9254   -4.5146 C.3       3 UNK         0.0250 
     28 CB         22.8504   -1.9917   -4.9518 C.3       3 UNK        -0.1990 
     29 N          24.4710   -1.3136   -3.2384 N.am      3 UNK        -0.4232 
     30 C          25.3534   -0.5952   -2.5320 C.2       2 UNK         0.4993 
     31 O          25.7798    0.5018   -2.8910 O.2       2 UNK        -0.5286 
     32 CA         25.8886   -1.2079   -1.2246 C.3       2 UNK         0.0209 
     33 CB         24.9116   -0.9751   -0.0561 C.3       2 UNK        -0.1931 
     34 N          26.2791   -2.6209   -1.3447 N.am      2 UNK        -0.4546 
     35 C          25.5109   -3.6950   -1.5793 C.2       1 UNK         0.5154 
     36 O          24.2784   -3.6517   -1.6282 O.2       1 UNK        -0.5181 
     37 C          28.3336    2.2882   -4.7924 C.2       5 UNK         0.5014 
     38 O          29.0503    3.1528   -5.2975 O.2       5 UNK        -0.5248 
     39 N          27.0276    2.4540   -4.5341 N.am      6 UNK        -0.4434 
     40 CA         26.2593    3.6690   -4.8113 C.3       6 UNK         0.0363 
     41 CB         24.8630    3.5431   -4.1810 C.3       6 UNK        -0.1936 
     42 C          26.1503    3.9877   -6.3116 C.2       6 UNK         0.5081 
     43 O          26.2849    5.1506   -6.6931 O.2       6 UNK        -0.5248 
     44 N          25.9212    2.9561   -7.1357 N.am      7 UNK        -0.4718 
     45 CA         25.8439    3.0667   -8.5956 C.3       7 UNK         0.0273 
     46 CB         25.1629    1.8069   -9.1557 C.3       7 UNK        -0.1935 
     47 C          27.2101    3.2689   -9.2759 C.2       7 UNK         0.5018 
     48 O          27.2394    3.7100  -10.4255 O.2       7 UNK        -0.5186 
     49 N          28.2980    2.9076   -8.5778 N.am      8 UNK        -0.4240 
     50 CA         29.6786    2.7948   -9.0645 C.3       8 UNK         0.0235 
     51 CB         30.2557    4.1748   -9.4434 C.3       8 UNK        -0.2000 
     52 C          29.8103    1.7478  -10.1897 C.2       8 UNK         0.4941 
     53 O          30.5657    1.9487  -11.1431 O.2       8 UNK        -0.5273 
     54 N          29.0653    0.6421  -10.0580 N.am      9 UNK        -0.4262 
     55 CA         29.0206   -0.4677  -11.0076 C.3       9 UNK         0.0264 
     56 CB         27.6934   -1.2265  -10.8311 C.3       9 UNK        -0.1955 
     57 C          30.2383   -1.3679  -10.7708 C.2       9 UNK         0.5031 
     58 O          30.1892   -2.2388   -9.9014 O.2       9 UNK        -0.5390 
     59 N          31.3433   -1.0637  -11.4667 N.am      10 UNK        -0.4204 
     60 CA         32.7051   -1.6080  -11.3170 C.3       10 UNK         0.0237 
     61 CB         32.7435   -3.1372  -11.5090 C.3       10 UNK        -0.1985 
     62 C          33.4036   -1.1886  -10.0075 C.2       10 UNK         0.4970 
     63 O          34.6131   -0.9597  -10.0194 O.2       10 UNK        -0.4914 
     64 N          32.6337   -1.0566   -8.9229 N.am      11 UNK        -0.4285 
     65 CA         33.0388   -0.5304   -7.6135 C.3       11 UNK         0.1007 
     66 C          33.4115    0.9826   -7.5966 C.2       11 UNK         0.5703 
     67 N          33.1577    1.7533   -8.6483 N.am      11 UNK        -0.7361 
     68 O          33.9545    1.4649   -6.6060 O.2       11 UNK        -0.4986 
     69 C69        31.9622   -0.8398   -6.5416 C.3       12 UNK        -0.0947 
     70 S70        31.6986   -2.6295   -6.3015 S.3       12 UNK        -0.2240 
     71 C71        32.7977   -2.9766   -4.8920 C.3       12 UNK         0.0194 
     72 H72        24.4915   -7.0877   -4.8551 H         1 UNK         0.0906 
     73 H73        23.9108   -5.6257   -5.6565 H         1 UNK         0.0906 
     74 H74        25.4664   -6.3243   -6.1131 H         1 UNK         0.0906 
     75 H75        25.2060   -6.6335   -2.7826 H         1 UNK         0.3140 
     76 H76        26.0204   -5.6667   -0.9938 H         1 UNK         0.1085 
     77 H77        28.0648   -4.1384   -2.7082 H         1 UNK         0.0836 
     78 H78        28.1568   -5.8552   -2.4608 H         1 UNK         0.0836 
     79 H79        30.4826   -5.8187   -1.4728 H         1 UNK         0.0731 
     80 H80        30.9576   -5.0330    0.0106 H         1 UNK         0.0731 
     81 H81        31.5792   -4.8501   -3.3354 H         1 UNK         0.1312 
     82 H82        32.4933   -0.6632   -3.4634 H         1 UNK         0.1406 
     83 H83        30.3333   -2.2782   -0.1383 H         1 UNK         0.1631 
     84 H84        32.2211    0.3713   -0.7436 H         1 UNK         0.0717 
     85 H85        30.5511    0.0829   -0.3163 H         1 UNK         0.0717 
     86 H86        29.0616   -0.3509   -2.6842 H         1 UNK         0.0934 
     87 H87        28.3149    1.1774   -2.3511 H         1 UNK         0.0934 
     88 H88        29.9026    0.8412   -4.9420 H         1 UNK         0.0739 
     89 H89        27.5934   -0.7423   -4.4130 H         1 UNK         0.3093 
     90 H90        26.5252   -1.2102   -7.7294 H         1 UNK         0.0818 
     91 H91        28.5012   -2.7364   -7.6312 H         1 UNK         0.0819 
     92 H92        28.1245   -3.1445   -5.9643 H         1 UNK         0.0819 
     93 H93        27.0177   -3.6023   -7.2582 H         1 UNK         0.0819 
     94 H94        25.7962   -2.4800   -5.2782 H         1 UNK         0.3041 
     95 H95        23.3298    0.0100   -4.3473 H         1 UNK         0.0784 
     96 H96        22.3817   -1.7195   -5.8986 H         1 UNK         0.0793 
     97 H97        23.3184   -2.9675   -5.0866 H         1 UNK         0.0793 
     98 H98        22.0533   -2.1028   -4.2164 H         1 UNK         0.0793 
     99 H99        24.2003   -2.2142   -2.8515 H         1 UNK         0.3024 
    100 H100       26.8071   -0.6683   -0.9868 H         1 UNK         0.1171 
    101 H101       25.3151   -1.3609    0.8801 H         1 UNK         0.0786 
    102 H102       24.7262    0.0905    0.0858 H         1 UNK         0.0786 
    103 H103       23.9445   -1.4492   -0.2252 H         1 UNK         0.0786 
    104 H104       27.2756   -2.7938   -1.3039 H         1 UNK         0.2977 
    105 H105       26.5214    1.6945   -4.0799 H         1 UNK         0.3127 
    106 H106       26.7763    4.5033   -4.3326 H         1 UNK         0.0770 
    107 H107       24.3092    2.6990   -4.5944 H         1 UNK         0.0814 
    108 H108       24.2711    4.4422   -4.3573 H         1 UNK         0.0814 
    109 H109       24.9270    3.4021   -3.1019 H         1 UNK         0.0814 
    110 H110       25.7467    2.0360   -6.7365 H         1 UNK         0.2983 
    111 H111       25.2243    3.9313   -8.8438 H         1 UNK         0.0947 
    112 H112       25.0554    1.8669  -10.2396 H         1 UNK         0.0806 
    113 H113       24.1647    1.6760   -8.7376 H         1 UNK         0.0806 
    114 H114       25.7385    0.9074   -8.9338 H         1 UNK         0.0806 
    115 H115       28.1435    2.5239   -7.6533 H         1 UNK         0.3000 
    116 H116       30.2611    2.4121   -8.2247 H         1 UNK         0.0850 
    117 H117       31.3186    4.1018   -9.6758 H         1 UNK         0.0810 
    118 H118       30.1514    4.8851   -8.6233 H         1 UNK         0.0810 
    119 H119       29.7615    4.5960  -10.3192 H         1 UNK         0.0810 
    120 H120       28.5890    0.5061   -9.1696 H         1 UNK         0.3040 
    121 H121       29.0552   -0.0770  -12.0270 H         1 UNK         0.0766 
    122 H122       26.8377   -0.5755  -11.0109 H         1 UNK         0.0812 
    123 H123       27.5928   -1.6427   -9.8289 H         1 UNK         0.0812 
    124 H124       27.6250   -2.0566  -11.5352 H         1 UNK         0.0812 
    125 H125       31.2766   -0.2660  -12.0871 H         1 UNK         0.3205 
    126 H126       33.2845   -1.1648  -12.1286 H         1 UNK         0.0754 
    127 H127       33.7725   -3.4985  -11.5272 H         1 UNK         0.0769 
    128 H128       32.2799   -3.4307  -12.4508 H         1 UNK         0.0769 
    129 H129       32.2327   -3.6657  -10.7036 H         1 UNK         0.0769 
    130 H130       31.6660   -1.3530   -9.0038 H         1 UNK         0.2981 
    131 H131       33.9515   -1.0575   -7.3305 H         1 UNK         0.0541 
    132 H132       32.7386    1.3718   -9.4804 H         1 UNK         0.3459 
    133 H133       33.4245    2.7241   -8.6159 H         1 UNK         0.3459 
    134 H134       32.2199   -0.3829   -5.5884 H         1 UNK         0.0612 
    135 H135       31.0102   -0.3966   -6.8344 H         1 UNK         0.0612 
    136 H136       33.1481   -4.0064   -4.9745 H         1 UNK         0.0624 
    137 H137       33.6890   -2.3500   -4.9505 H         1 UNK         0.0624 
@<TRIPOS>BOND
     1    1    2 1    
     2    1   72 1    
     3    1   73 1    
     4    1   74 1    
     5    2    3 2    
     6    2    4 am   BACKBONE|DICT|INTERRES
     7    4    5 1    
     8    4   75 1    
     9    5    6 1    
    10    5   35 1    
    11    5   76 1    
    12    6    7 1    
    13    6   77 1    
    14    6   78 1    
    15    7    8 1    
    16    8    9 1    
    17    8   79 1    
    18    8   80 1    
    19    9   10 ar   
    20    9   14 ar   
    21   10   11 ar   
    22   10   81 1    
    23   11   12 ar   
    24   11   71 1    
    25   12   13 ar   
    26   12   82 1    
    27   13   14 ar   
    28   13   15 1    
    29   14   83 1    
    30   15   16 1    
    31   15   84 1    
    32   15   85 1    
    33   16   17 1    
    34   17   18 1    
    35   17   86 1    
    36   17   87 1    
    37   18   19 1    
    38   18   37 1    
    39   18   88 1    
    40   19   20 am   BACKBONE|DICT|INTERRES
    41   19   89 1    
    42   20   21 2    
    43   20   22 1    
    44   22   23 1    
    45   22   24 1    
    46   22   90 1    
    47   23   91 1    
    48   23   92 1    
    49   23   93 1    
    50   24   25 am   BACKBONE|DICT|INTERRES
    51   24   94 1    
    52   25   26 2    
    53   25   27 1    
    54   27   28 1    
    55   27   29 1    
    56   27   95 1    
    57   28   96 1    
    58   28   97 1    
    59   28   98 1    
    60   29   30 am   BACKBONE|DICT|INTERRES
    61   29   99 1    
    62   30   31 2    
    63   30   32 1    
    64   32   33 1    
    65   32   34 1    
    66   32  100 1    
    67   33  101 1    
    68   33  102 1    
    69   33  103 1    
    70   34   35 am   BACKBONE|DICT|INTERRES
    71   34  104 1    
    72   35   36 2    
    73   37   38 2    
    74   37   39 am   BACKBONE|DICT|INTERRES
    75   39   40 1    
    76   39  105 1    
    77   40   41 1    
    78   40   42 1    
    79   40  106 1    
    80   41  107 1    
    81   41  108 1    
    82   41  109 1    
    83   42   43 2    
    84   42   44 am   BACKBONE|DICT|INTERRES
    85   44   45 1    
    86   44  110 1    
    87   45   46 1    
    88   45   47 1    
    89   45  111 1    
    90   46  112 1    
    91   46  113 1    
    92   46  114 1    
    93   47   48 2    
    94   47   49 am   BACKBONE|DICT|INTERRES
    95   49   50 1    
    96   49  115 1    
    97   50   51 1    
    98   50   52 1    
    99   50  116 1    
   100   51  117 1    
   101   51  118 1    
   102   51  119 1    
   103   52   53 2    
   104   52   54 am   BACKBONE|DICT|INTERRES
   105   54   55 1    
   106   54  120 1    
   107   55   56 1    
   108   55   57 1    
   109   55  121 1    
   110   56  122 1    
   111   56  123 1    
   112   56  124 1    
   113   57   58 2    
   114   57   59 am   BACKBONE|DICT|INTERRES
   115   59   60 1    
   116   59  125 1    
   117   60   61 1    
   118   60   62 1    
   119   60  126 1    
   120   61  127 1    
   121   61  128 1    
   122   61  129 1    
   123   62   63 2    
   124   62   64 am   BACKBONE|DICT|INTERRES
   125   64   65 1    
   126   64  130 1    
   127   65   66 1    
   128   65   69 1    
   129   65  131 1    
   130   66   67 am   BACKBONE|DICT|INTERRES
   131   66   68 2    
   132   67  132 1    
   133   67  133 1    
   134   69   70 1    
   135   69  134 1    
   136   69  135 1    
   137   70   71 1    
   138   71  136 1    
   139   71  137 1    
@<TRIPOS>SUBSTRUCTURE
     1 UNK         1 GROUP             0       ****    0 ROOT    
