@<TRIPOS>MOLECULE
3R137
137   139    1
SMALL
USER_CHARGES


@<TRIPOS>ATOM
      1 CA         30.2030   -5.5866   -4.2222 C.3       0 UNK        -0.2020 
      2 C          29.2490   -5.5825   -3.0391 C.2       0 UNK         0.4855 
      3 O          28.9415   -6.6426   -2.4939 O.2       0 UNK        -0.5197 
      4 N          28.7731   -4.3987   -2.6444 N.am      1 UNK        -0.4892 
      5 CA         27.8057   -4.1840   -1.5722 C.3       1 UNK         0.0835 
      6 C6         28.4461   -4.2952   -0.1584 C.3       12 UNK        -0.0855 
      7 S7         29.4169   -2.8622    0.4306 S.3       12 UNK        -0.2931 
      8 C8         30.9408   -2.9446   -0.5775 C.3       12 UNK         0.0378 
      9 C9         30.9995   -1.9184   -1.7117 C.ar      12 UNK        -0.0802 
     10 C10        31.7046   -2.2192   -2.8830 C.ar      12 UNK        -0.0944 
     11 C11        31.8380   -1.2691   -3.9021 C.ar      12 UNK        -0.0787 
     12 C12        31.2531   -0.0083   -3.7483 C.ar      12 UNK        -0.0862 
     13 C13        30.5442    0.3094   -2.5860 C.ar      12 UNK        -0.0733 
     14 C14        30.4267   -0.6474   -1.5747 C.ar      12 UNK        -0.0832 
     15 C15        29.9509    1.6996   -2.3788 C.3       12 UNK         0.0240 
     16 S16        28.9680    2.3047   -3.7884 S.3       12 UNK        -0.2522 
     17 C17        27.5989    1.0982   -3.8665 C.3       12 UNK        -0.0967 
     18 CA         27.3266    0.6216   -5.3187 C.3       5 UNK         0.0660 
     19 N          26.8570   -0.7687   -5.3532 N.am      5 UNK        -0.4015 
     20 C          26.7057   -1.5399   -6.4405 C.2       4 UNK         0.4946 
     21 O          26.9898   -1.1815   -7.5854 O.2       4 UNK        -0.5353 
     22 CA         26.0684   -2.9231   -6.2219 C.3       4 UNK         0.0277 
     23 CB         27.1400   -3.9892   -5.9475 C.3       4 UNK        -0.1981 
     24 N          25.0932   -2.9203   -5.1275 N.am      4 UNK        -0.4209 
     25 C          23.9135   -2.2824   -5.1594 C.2       3 UNK         0.4942 
     26 O          23.5039   -1.6524   -6.1341 O.2       3 UNK        -0.5208 
     27 CA         23.0655   -2.3306   -3.8773 C.3       3 UNK         0.0250 
     28 CB         22.2360   -3.6237   -3.8233 C.3       3 UNK        -0.1990 
     29 N          23.8788   -2.2155   -2.6635 N.am      3 UNK        -0.4232 
     30 C          24.5003   -1.0923   -2.2753 C.2       2 UNK         0.4993 
     31 O          24.4087   -0.0167   -2.8666 O.2       2 UNK        -0.5286 
     32 CA         25.4103   -1.1965   -1.0389 C.3       2 UNK         0.0209 
     33 CB         24.6005   -0.9870    0.2506 C.3       2 UNK        -0.1931 
     34 N          26.1568   -2.4589   -0.9515 N.am      2 UNK        -0.4546 
     35 C          27.0554   -2.8679   -1.8583 C.2       1 UNK         0.5154 
     36 O          27.2822   -2.2534   -2.9051 O.2       1 UNK        -0.5181 
     37 C          26.4295    1.6220   -6.0927 C.2       5 UNK         0.5014 
     38 O          26.8096    2.7846   -6.2323 O.2       5 UNK        -0.5248 
     39 N          25.2920    1.1779   -6.6517 N.am      6 UNK        -0.4434 
     40 CA         24.5157    1.9193   -7.6525 C.3       6 UNK         0.0363 
     41 CB         23.2495    1.1241   -8.0049 C.3       6 UNK        -0.1936 
     42 C          25.3214    2.2452   -8.9293 C.2       6 UNK         0.5081 
     43 O          25.0262    3.2436   -9.5858 O.2       6 UNK        -0.5248 
     44 N          26.3447    1.4315   -9.2326 N.am      7 UNK        -0.4718 
     45 CA         27.3316    1.6737  -10.2899 C.3       7 UNK         0.0273 
     46 CB         27.6739    0.3327  -10.9600 C.3       7 UNK        -0.1935 
     47 C          28.5933    2.4101   -9.7816 C.2       7 UNK         0.5018 
     48 O          29.5913    2.4585  -10.5029 O.2       7 UNK        -0.5186 
     49 N          28.5321    2.9855   -8.5699 N.am      8 UNK        -0.4240 
     50 CA         29.5892    3.7261   -7.8733 C.3       8 UNK         0.0235 
     51 CB         29.9464    5.0274   -8.6298 C.3       8 UNK        -0.2000 
     52 C          30.7930    2.8267   -7.5352 C.2       8 UNK         0.4941 
     53 O          30.5915    1.6937   -7.0980 O.2       8 UNK        -0.5273 
     54 N          32.0181    3.3424   -7.7167 N.am      9 UNK        -0.4262 
     55 CA         33.2773    2.6454   -7.4302 C.3       9 UNK         0.0264 
     56 CB         34.4488    3.6309   -7.5667 C.3       9 UNK        -0.1955 
     57 C          33.5134    1.4022   -8.3062 C.2       9 UNK         0.5031 
     58 O          34.1583    0.4580   -7.8498 O.2       9 UNK        -0.5390 
     59 N          32.9570    1.3973   -9.5244 N.am      10 UNK        -0.4204 
     60 CA         32.9117    0.2429  -10.4226 C.3       10 UNK         0.0237 
     61 CB         33.0014    0.7408  -11.8778 C.3       10 UNK        -0.1985 
     62 C          31.6338   -0.5709  -10.1465 C.2       10 UNK         0.4970 
     63 O          30.8299   -0.7774  -11.0563 O.2       10 UNK        -0.4914 
     64 N          31.4576   -0.9681   -8.8798 N.am      11 UNK        -0.4285 
     65 CA         30.2572   -1.6080   -8.3294 C.3       11 UNK         0.1007 
     66 C          29.8069   -2.8967   -9.0715 C.2       11 UNK         0.5703 
     67 N          28.5030   -3.0975   -9.2056 N.am      11 UNK        -0.7361 
     68 O          30.6179   -3.7182   -9.4960 O.2       11 UNK        -0.4986 
     69 C69        30.3679   -1.8192   -6.7964 C.3       12 UNK        -0.0947 
     70 S70        31.8290   -2.7681   -6.2527 S.3       12 UNK        -0.2240 
     71 C71        32.6564   -1.5815   -5.1492 C.3       12 UNK         0.0194 
     72 H72        31.2122   -5.8331   -3.8936 H         1 UNK         0.0906 
     73 H73        29.8904   -6.3272   -4.9578 H         1 UNK         0.0906 
     74 H74        30.2305   -4.6164   -4.7148 H         1 UNK         0.0906 
     75 H75        29.0121   -3.5450   -3.1358 H         1 UNK         0.3140 
     76 H76        27.0522   -4.9704   -1.6583 H         1 UNK         0.1085 
     77 H77        29.0711   -5.1873   -0.0953 H         1 UNK         0.0836 
     78 H78        27.6566   -4.4611    0.5760 H         1 UNK         0.0836 
     79 H79        31.0672   -3.9559   -0.9665 H         1 UNK         0.0731 
     80 H80        31.7921   -2.7650    0.0801 H         1 UNK         0.0731 
     81 H81        32.1729   -3.1875   -2.9965 H         1 UNK         0.1312 
     82 H82        31.3589    0.7334   -4.5290 H         1 UNK         0.1406 
     83 H83        29.9040   -0.3889   -0.6645 H         1 UNK         0.1631 
     84 H84        30.7670    2.4003   -2.1993 H         1 UNK         0.0717 
     85 H85        29.3223    1.7256   -1.4872 H         1 UNK         0.0717 
     86 H86        27.8665    0.2500   -3.2367 H         1 UNK         0.0934 
     87 H87        26.7061    1.5294   -3.4092 H         1 UNK         0.0934 
     88 H88        28.2794    0.6071   -5.8532 H         1 UNK         0.0739 
     89 H89        26.6750   -1.1937   -4.4490 H         1 UNK         0.3093 
     90 H90        25.5417   -3.1953   -7.1391 H         1 UNK         0.0818 
     91 H91        27.7957   -4.1206   -6.8069 H         1 UNK         0.0819 
     92 H92        27.7690   -3.7155   -5.1028 H         1 UNK         0.0819 
     93 H93        26.6944   -4.9613   -5.7361 H         1 UNK         0.0819 
     94 H94        25.3654   -3.3870   -4.2755 H         1 UNK         0.3041 
     95 H95        22.3749   -1.4846   -3.9061 H         1 UNK         0.0784 
     96 H96        21.6083   -3.7202   -4.7105 H         1 UNK         0.0793 
     97 H97        22.8675   -4.5116   -3.7732 H         1 UNK         0.0793 
     98 H98        21.5731   -3.6334   -2.9578 H         1 UNK         0.0793 
     99 H99        23.9980   -3.0482   -2.1049 H         1 UNK         0.3024 
    100 H100       26.1434   -0.3897   -1.1146 H         1 UNK         0.1171 
    101 H101       25.2503   -0.9500    1.1253 H         1 UNK         0.0786 
    102 H102       24.0519   -0.0444    0.2179 H         1 UNK         0.0786 
    103 H103       23.8715   -1.7832    0.4061 H         1 UNK         0.0786 
    104 H104       26.0237   -3.0062   -0.1132 H         1 UNK         0.2977 
    105 H105       25.0147    0.2186   -6.4892 H         1 UNK         0.3127 
    106 H106       24.2140    2.8676   -7.2032 H         1 UNK         0.0770 
    107 H107       23.4918    0.1522   -8.4370 H         1 UNK         0.0814 
    108 H108       22.6387    1.6624   -8.7309 H         1 UNK         0.0814 
    109 H109       22.6302    0.9529   -7.1241 H         1 UNK         0.0814 
    110 H110       26.5122    0.6230   -8.6416 H         1 UNK         0.2983 
    111 H111       26.8927    2.3172  -11.0553 H         1 UNK         0.0947 
    112 H112       28.1182   -0.3677  -10.2554 H         1 UNK         0.0806 
    113 H113       28.3844    0.4674  -11.7766 H         1 UNK         0.0806 
    114 H114       26.7856   -0.1376  -11.3813 H         1 UNK         0.0806 
    115 H115       27.6893    2.8564   -8.0199 H         1 UNK         0.3000 
    116 H116       29.1635    4.0154   -6.9113 H         1 UNK         0.0850 
    117 H117       30.5952    5.6699   -8.0334 H         1 UNK         0.0810 
    118 H118       29.0499    5.6073   -8.8498 H         1 UNK         0.0810 
    119 H119       30.4490    4.8302   -9.5775 H         1 UNK         0.0810 
    120 H120       32.0914    4.2846   -8.0727 H         1 UNK         0.3040 
    121 H121       33.2353    2.3054   -6.3930 H         1 UNK         0.0766 
    122 H122       34.3430    4.4721   -6.8814 H         1 UNK         0.0812 
    123 H123       34.5279    4.0284   -8.5794 H         1 UNK         0.0812 
    124 H124       35.3967    3.1437   -7.3334 H         1 UNK         0.0812 
    125 H125       32.3832    2.1871   -9.7866 H         1 UNK         0.3205 
    126 H126       33.7665   -0.4113  -10.2380 H         1 UNK         0.0754 
    127 H127       32.9974   -0.0956  -12.5780 H         1 UNK         0.0769 
    128 H128       33.9207    1.3012  -12.0488 H         1 UNK         0.0769 
    129 H129       32.1610    1.3875  -12.1351 H         1 UNK         0.0769 
    130 H130       32.1867   -0.7646   -8.2105 H         1 UNK         0.2981 
    131 H131       29.4682   -0.8696   -8.4747 H         1 UNK         0.0541 
    132 H132       28.1737   -3.9218   -9.6814 H         1 UNK         0.3459 
    133 H133       27.8446   -2.4283   -8.8198 H         1 UNK         0.3459 
    134 H134       30.3717   -0.8447   -6.3094 H         1 UNK         0.0612 
    135 H135       29.4840   -2.3237   -6.4096 H         1 UNK         0.0612 
    136 H136       32.8751   -0.6699   -5.7070 H         1 UNK         0.0624 
    137 H137       33.6206   -1.9949   -4.8506 H         1 UNK         0.0624 
@<TRIPOS>BOND
     1    1    2 1    
     2    1   72 1    
     3    1   73 1    
     4    1   74 1    
     5    2    3 2    
     6    2    4 am   BACKBONE|DICT|INTERRES
     7    4    5 1    
     8    4   75 1    
     9    5    6 1    
    10    5   35 1    
    11    5   76 1    
    12    6    7 1    
    13    6   77 1    
    14    6   78 1    
    15    7    8 1    
    16    8    9 1    
    17    8   79 1    
    18    8   80 1    
    19    9   10 ar   
    20    9   14 ar   
    21   10   11 ar   
    22   10   81 1    
    23   11   12 ar   
    24   11   71 1    
    25   12   13 ar   
    26   12   82 1    
    27   13   14 ar   
    28   13   15 1    
    29   14   83 1    
    30   15   16 1    
    31   15   84 1    
    32   15   85 1    
    33   16   17 1    
    34   17   18 1    
    35   17   86 1    
    36   17   87 1    
    37   18   19 1    
    38   18   37 1    
    39   18   88 1    
    40   19   20 am   BACKBONE|DICT|INTERRES
    41   19   89 1    
    42   20   21 2    
    43   20   22 1    
    44   22   23 1    
    45   22   24 1    
    46   22   90 1    
    47   23   91 1    
    48   23   92 1    
    49   23   93 1    
    50   24   25 am   BACKBONE|DICT|INTERRES
    51   24   94 1    
    52   25   26 2    
    53   25   27 1    
    54   27   28 1    
    55   27   29 1    
    56   27   95 1    
    57   28   96 1    
    58   28   97 1    
    59   28   98 1    
    60   29   30 am   BACKBONE|DICT|INTERRES
    61   29   99 1    
    62   30   31 2    
    63   30   32 1    
    64   32   33 1    
    65   32   34 1    
    66   32  100 1    
    67   33  101 1    
    68   33  102 1    
    69   33  103 1    
    70   34   35 am   BACKBONE|DICT|INTERRES
    71   34  104 1    
    72   35   36 2    
    73   37   38 2    
    74   37   39 am   BACKBONE|DICT|INTERRES
    75   39   40 1    
    76   39  105 1    
    77   40   41 1    
    78   40   42 1    
    79   40  106 1    
    80   41  107 1    
    81   41  108 1    
    82   41  109 1    
    83   42   43 2    
    84   42   44 am   BACKBONE|DICT|INTERRES
    85   44   45 1    
    86   44  110 1    
    87   45   46 1    
    88   45   47 1    
    89   45  111 1    
    90   46  112 1    
    91   46  113 1    
    92   46  114 1    
    93   47   48 2    
    94   47   49 am   BACKBONE|DICT|INTERRES
    95   49   50 1    
    96   49  115 1    
    97   50   51 1    
    98   50   52 1    
    99   50  116 1    
   100   51  117 1    
   101   51  118 1    
   102   51  119 1    
   103   52   53 2    
   104   52   54 am   BACKBONE|DICT|INTERRES
   105   54   55 1    
   106   54  120 1    
   107   55   56 1    
   108   55   57 1    
   109   55  121 1    
   110   56  122 1    
   111   56  123 1    
   112   56  124 1    
   113   57   58 2    
   114   57   59 am   BACKBONE|DICT|INTERRES
   115   59   60 1    
   116   59  125 1    
   117   60   61 1    
   118   60   62 1    
   119   60  126 1    
   120   61  127 1    
   121   61  128 1    
   122   61  129 1    
   123   62   63 2    
   124   62   64 am   BACKBONE|DICT|INTERRES
   125   64   65 1    
   126   64  130 1    
   127   65   66 1    
   128   65   69 1    
   129   65  131 1    
   130   66   67 am   BACKBONE|DICT|INTERRES
   131   66   68 2    
   132   67  132 1    
   133   67  133 1    
   134   69   70 1    
   135   69  134 1    
   136   69  135 1    
   137   70   71 1    
   138   71  136 1    
   139   71  137 1    
@<TRIPOS>SUBSTRUCTURE
     1 UNK         1 GROUP             0       ****    0 ROOT    
