@<TRIPOS>MOLECULE
3R137
137   139    1
SMALL
USER_CHARGES


@<TRIPOS>ATOM
      1 CA         25.3111   -6.5397   -3.5356 C.3       0 UNK        -0.2020 
      2 C          25.4292   -5.5130   -2.4201 C.2       0 UNK         0.4855 
      3 O          24.4216   -4.9386   -2.0058 O.2       0 UNK        -0.5197 
      4 N          26.6553   -5.2677   -1.9409 N.am      1 UNK        -0.4892 
      5 CA         27.0074   -4.2701   -0.9240 C.3       1 UNK         0.0835 
      6 C6         28.5045   -4.3535   -0.5117 C.3       12 UNK        -0.0855 
      7 S7         29.6768   -4.6359   -1.8921 S.3       12 UNK        -0.2931 
      8 C8         31.1604   -3.7437   -1.3332 C.3       12 UNK         0.0378 
      9 C9         31.2732   -2.3641   -1.9669 C.ar      12 UNK        -0.0802 
     10 C10        32.0085   -2.1944   -3.1442 C.ar      12 UNK        -0.0944 
     11 C11        32.1715   -0.9245   -3.7112 C.ar      12 UNK        -0.0787 
     12 C12        31.5972    0.1814   -3.0768 C.ar      12 UNK        -0.0862 
     13 C13        30.8556    0.0267   -1.9005 C.ar      12 UNK        -0.0733 
     14 C14        30.6907   -1.2510   -1.3551 C.ar      12 UNK        -0.0832 
     15 C15        30.2680    1.2409   -1.1886 C.3       12 UNK         0.0240 
     16 S16        29.1721    2.2387   -2.2494 S.3       12 UNK        -0.2522 
     17 C17        27.9243    1.0101   -2.7536 C.3       12 UNK        -0.0967 
     18 CA         28.0145    0.6816   -4.2661 C.3       5 UNK         0.0660 
     19 N          27.5899   -0.6946   -4.5472 N.am      5 UNK        -0.4015 
     20 C          27.5498   -1.2846   -5.7521 C.2       4 UNK         0.4946 
     21 O          27.8834   -0.7331   -6.7997 O.2       4 UNK        -0.5353 
     22 CA         26.9772   -2.7093   -5.8005 C.3       4 UNK         0.0277 
     23 CB         27.9909   -3.7440   -5.2855 C.3       4 UNK        -0.1981 
     24 N          25.7445   -2.7858   -5.0164 N.am      4 UNK        -0.4209 
     25 C          24.5508   -2.3547   -5.4504 C.2       3 UNK         0.4942 
     26 O          24.3357   -1.9841   -6.6042 O.2       3 UNK        -0.5208 
     27 CA         23.4039   -2.3006   -4.4254 C.3       3 UNK         0.0250 
     28 CB         22.5189   -3.5527   -4.5288 C.3       3 UNK        -0.1990 
     29 N          23.8742   -2.1362   -3.0462 N.am      3 UNK        -0.4232 
     30 C          24.4015   -0.9979   -2.5686 C.2       2 UNK         0.4993 
     31 O          24.5224    0.0286   -3.2366 O.2       2 UNK        -0.5286 
     32 CA         24.9395   -1.0185   -1.1258 C.3       2 UNK         0.0209 
     33 CB         23.8234   -0.6655   -0.1304 C.3       2 UNK        -0.1931 
     34 N          25.5516   -2.2961   -0.7451 N.am      2 UNK        -0.4546 
     35 C          26.5944   -2.8553   -1.3747 C.2       1 UNK         0.5154 
     36 O          27.1704   -2.3240   -2.3236 O.2       1 UNK        -0.5181 
     37 C          27.2559    1.7327   -5.1037 C.2       5 UNK         0.5014 
     38 O          27.8694    2.6877   -5.5813 O.2       5 UNK        -0.5248 
     39 N          25.9487    1.5119   -5.3095 N.am      6 UNK        -0.4434 
     40 CA         25.0589    2.3239   -6.1451 C.3       6 UNK         0.0363 
     41 CB         23.6374    1.7435   -6.0714 C.3       6 UNK        -0.1936 
     42 C          25.4973    2.4772   -7.6163 C.2       6 UNK         0.5081 
     43 O          25.0768    3.4398   -8.2590 O.2       6 UNK        -0.5248 
     44 N          26.3349    1.5620   -8.1279 N.am      7 UNK        -0.4718 
     45 CA         26.9374    1.6596   -9.4611 C.3       7 UNK         0.0273 
     46 CB         27.3582    0.2580   -9.9328 C.3       7 UNK        -0.1935 
     47 C          28.1336    2.6315   -9.5205 C.2       7 UNK         0.5018 
     48 O          28.5636    2.9616  -10.6258 O.2       7 UNK        -0.5186 
     49 N          28.6414    3.0726   -8.3575 N.am      8 UNK        -0.4240 
     50 CA         29.8238    3.9158   -8.1599 C.3       8 UNK         0.0235 
     51 CB         29.6300    5.3208   -8.7778 C.3       8 UNK        -0.2000 
     52 C          31.1035    3.1821   -8.6017 C.2       8 UNK         0.4941 
     53 O          31.4254    2.1467   -8.0156 O.2       8 UNK        -0.5273 
     54 N          31.8232    3.7258   -9.5931 N.am      9 UNK        -0.4262 
     55 CA         33.0244    3.1243  -10.1767 C.3       9 UNK         0.0264 
     56 CB         33.6822    4.1297  -11.1361 C.3       9 UNK        -0.1955 
     57 C          32.6965    1.8101  -10.9067 C.2       9 UNK         0.5031 
     58 O          31.6916    1.7497  -11.6183 O.2       9 UNK        -0.5390 
     59 N          33.5612    0.8009  -10.7252 N.am      10 UNK        -0.4204 
     60 CA         33.4113   -0.5811  -11.2018 C.3       10 UNK         0.0237 
     61 CB         33.4716   -0.6541  -12.7437 C.3       10 UNK        -0.1985 
     62 C          32.1600   -1.2573  -10.6051 C.2       10 UNK         0.4970 
     63 O          31.2973   -1.7371  -11.3430 O.2       10 UNK        -0.4914 
     64 N          32.0942   -1.2648   -9.2672 N.am      11 UNK        -0.4285 
     65 CA         31.0223   -1.8690   -8.4583 C.3       11 UNK         0.1007 
     66 C          30.8134   -3.4007   -8.6549 C.2       11 UNK         0.5703 
     67 N          31.8148   -4.1540   -9.0959 N.am      11 UNK        -0.7361 
     68 O          29.7205   -3.9088   -8.4207 O.2       11 UNK        -0.4986 
     69 C69        31.1728   -1.4996   -6.9566 C.3       12 UNK        -0.0947 
     70 S70        32.7839   -1.9861   -6.2472 S.3       12 UNK        -0.2240 
     71 C71        33.0274   -0.7181   -4.9595 C.3       12 UNK         0.0194 
     72 H72        26.2472   -7.0739   -3.6973 H         1 UNK         0.0906 
     73 H73        24.5420   -7.2721   -3.2920 H         1 UNK         0.0906 
     74 H74        25.0339   -6.0504   -4.4688 H         1 UNK         0.0906 
     75 H75        27.4530   -5.7406   -2.3440 H         1 UNK         0.3140 
     76 H76        26.4201   -4.5108   -0.0351 H         1 UNK         0.1085 
     77 H77        28.7980   -3.4656    0.0514 H         1 UNK         0.0836 
     78 H78        28.6322   -5.1863    0.1816 H         1 UNK         0.0836 
     79 H79        32.0367   -4.3388   -1.5952 H         1 UNK         0.0731 
     80 H80        31.1716   -3.6671   -0.2449 H         1 UNK         0.0731 
     81 H81        32.4711   -3.0537   -3.6098 H         1 UNK         0.1312 
     82 H82        31.7358    1.1712   -3.4905 H         1 UNK         0.1406 
     83 H83        30.1281   -1.3790   -0.4407 H         1 UNK         0.1631 
     84 H84        31.0853    1.8722   -0.8375 H         1 UNK         0.0717 
     85 H85        29.7107    0.9397   -0.3002 H         1 UNK         0.0717 
     86 H86        28.0759    0.1103   -2.1574 H         1 UNK         0.0934 
     87 H87        26.9328    1.3740   -2.4765 H         1 UNK         0.0934 
     88 H88        29.0615    0.7224   -4.5741 H         1 UNK         0.0739 
     89 H89        27.3525   -1.2606   -3.7334 H         1 UNK         0.3093 
     90 H90        26.7523   -2.9498   -6.8422 H         1 UNK         0.0818 
     91 H91        28.3246   -3.5249   -4.2725 H         1 UNK         0.0819 
     92 H92        27.5715   -4.7499   -5.2910 H         1 UNK         0.0819 
     93 H93        28.8802   -3.7635   -5.9139 H         1 UNK         0.0819 
     94 H94        25.8469   -3.0211   -4.0387 H         1 UNK         0.3041 
     95 H95        22.7878   -1.4336   -4.6751 H         1 UNK         0.0784 
     96 H96        22.1092   -3.6568   -5.5345 H         1 UNK         0.0793 
     97 H97        23.0746   -4.4640   -4.3097 H         1 UNK         0.0793 
     98 H98        21.6755   -3.5007   -3.8401 H         1 UNK         0.0793 
     99 H99        23.8588   -2.9612   -2.4544 H         1 UNK         0.3024 
    100 H100       25.7120   -0.2504   -1.0566 H         1 UNK         0.1171 
    101 H101       23.3658    0.2926   -0.3818 H         1 UNK         0.0786 
    102 H102       24.2094   -0.5805    0.8857 H         1 UNK         0.0786 
    103 H103       23.0307   -1.4148   -0.1283 H         1 UNK         0.0786 
    104 H104       25.0978   -2.8102   -0.0032 H         1 UNK         0.2977 
    105 H105       25.5097    0.7513   -4.7979 H         1 UNK         0.3127 
    106 H106       25.0416    3.3262   -5.7126 H         1 UNK         0.0770 
    107 H107       23.6005    0.7232   -6.4549 H         1 UNK         0.0814 
    108 H108       22.9390    2.3394   -6.6606 H         1 UNK         0.0814 
    109 H109       23.2650    1.7307   -5.0469 H         1 UNK         0.0814 
    110 H110       26.6636    0.8022   -7.5393 H         1 UNK         0.2983 
    111 H111       26.1832    2.0337  -10.1570 H         1 UNK         0.0947 
    112 H112       27.7111    0.2839  -10.9646 H         1 UNK         0.0806 
    113 H113       26.5271   -0.4460   -9.8900 H         1 UNK         0.0806 
    114 H114       28.1702   -0.1413   -9.3264 H         1 UNK         0.0806 
    115 H115       28.2190    2.7389   -7.4951 H         1 UNK         0.3000 
    116 H116       29.9163    4.0487   -7.0808 H         1 UNK         0.0850 
    117 H117       30.4738    5.9718   -8.5450 H         1 UNK         0.0810 
    118 H118       28.7388    5.8014   -8.3739 H         1 UNK         0.0810 
    119 H119       29.5220    5.2924   -9.8622 H         1 UNK         0.0810 
    120 H120       31.4596    4.5490  -10.0498 H         1 UNK         0.3040 
    121 H121       33.7210    2.9158   -9.3618 H         1 UNK         0.0766 
    122 H122       33.9551    5.0513  -10.6218 H         1 UNK         0.0812 
    123 H123       33.0205    4.3889  -11.9639 H         1 UNK         0.0812 
    124 H124       34.5956    3.7176  -11.5673 H         1 UNK         0.0812 
    125 H125       34.3642    0.9700  -10.1344 H         1 UNK         0.3205 
    126 H126       34.2702   -1.1351  -10.8195 H         1 UNK         0.0754 
    127 H127       33.4668   -1.6905  -13.0835 H         1 UNK         0.0769 
    128 H128       34.3812   -0.1918  -13.1270 H         1 UNK         0.0769 
    129 H129       32.6210   -0.1577  -13.2117 H         1 UNK         0.0769 
    130 H130       32.8414   -0.8405   -8.7387 H         1 UNK         0.2981 
    131 H131       30.0956   -1.4073   -8.8014 H         1 UNK         0.0541 
    132 H132       31.6674   -5.1418   -9.2283 H         1 UNK         0.3459 
    133 H133       32.7172   -3.7474   -9.2799 H         1 UNK         0.3459 
    134 H134       31.0441   -0.4225   -6.8392 H         1 UNK         0.0612 
    135 H135       30.3837   -1.9545   -6.3579 H         1 UNK         0.0612 
    136 H136       32.8496    0.2663   -5.3959 H         1 UNK         0.0624 
    137 H137       34.0752   -0.7349   -4.6580 H         1 UNK         0.0624 
@<TRIPOS>BOND
     1    1    2 1    
     2    1   72 1    
     3    1   73 1    
     4    1   74 1    
     5    2    3 2    
     6    2    4 am   BACKBONE|DICT|INTERRES
     7    4    5 1    
     8    4   75 1    
     9    5    6 1    
    10    5   35 1    
    11    5   76 1    
    12    6    7 1    
    13    6   77 1    
    14    6   78 1    
    15    7    8 1    
    16    8    9 1    
    17    8   79 1    
    18    8   80 1    
    19    9   10 ar   
    20    9   14 ar   
    21   10   11 ar   
    22   10   81 1    
    23   11   12 ar   
    24   11   71 1    
    25   12   13 ar   
    26   12   82 1    
    27   13   14 ar   
    28   13   15 1    
    29   14   83 1    
    30   15   16 1    
    31   15   84 1    
    32   15   85 1    
    33   16   17 1    
    34   17   18 1    
    35   17   86 1    
    36   17   87 1    
    37   18   19 1    
    38   18   37 1    
    39   18   88 1    
    40   19   20 am   BACKBONE|DICT|INTERRES
    41   19   89 1    
    42   20   21 2    
    43   20   22 1    
    44   22   23 1    
    45   22   24 1    
    46   22   90 1    
    47   23   91 1    
    48   23   92 1    
    49   23   93 1    
    50   24   25 am   BACKBONE|DICT|INTERRES
    51   24   94 1    
    52   25   26 2    
    53   25   27 1    
    54   27   28 1    
    55   27   29 1    
    56   27   95 1    
    57   28   96 1    
    58   28   97 1    
    59   28   98 1    
    60   29   30 am   BACKBONE|DICT|INTERRES
    61   29   99 1    
    62   30   31 2    
    63   30   32 1    
    64   32   33 1    
    65   32   34 1    
    66   32  100 1    
    67   33  101 1    
    68   33  102 1    
    69   33  103 1    
    70   34   35 am   BACKBONE|DICT|INTERRES
    71   34  104 1    
    72   35   36 2    
    73   37   38 2    
    74   37   39 am   BACKBONE|DICT|INTERRES
    75   39   40 1    
    76   39  105 1    
    77   40   41 1    
    78   40   42 1    
    79   40  106 1    
    80   41  107 1    
    81   41  108 1    
    82   41  109 1    
    83   42   43 2    
    84   42   44 am   BACKBONE|DICT|INTERRES
    85   44   45 1    
    86   44  110 1    
    87   45   46 1    
    88   45   47 1    
    89   45  111 1    
    90   46  112 1    
    91   46  113 1    
    92   46  114 1    
    93   47   48 2    
    94   47   49 am   BACKBONE|DICT|INTERRES
    95   49   50 1    
    96   49  115 1    
    97   50   51 1    
    98   50   52 1    
    99   50  116 1    
   100   51  117 1    
   101   51  118 1    
   102   51  119 1    
   103   52   53 2    
   104   52   54 am   BACKBONE|DICT|INTERRES
   105   54   55 1    
   106   54  120 1    
   107   55   56 1    
   108   55   57 1    
   109   55  121 1    
   110   56  122 1    
   111   56  123 1    
   112   56  124 1    
   113   57   58 2    
   114   57   59 am   BACKBONE|DICT|INTERRES
   115   59   60 1    
   116   59  125 1    
   117   60   61 1    
   118   60   62 1    
   119   60  126 1    
   120   61  127 1    
   121   61  128 1    
   122   61  129 1    
   123   62   63 2    
   124   62   64 am   BACKBONE|DICT|INTERRES
   125   64   65 1    
   126   64  130 1    
   127   65   66 1    
   128   65   69 1    
   129   65  131 1    
   130   66   67 am   BACKBONE|DICT|INTERRES
   131   66   68 2    
   132   67  132 1    
   133   67  133 1    
   134   69   70 1    
   135   69  134 1    
   136   69  135 1    
   137   70   71 1    
   138   71  136 1    
   139   71  137 1    
@<TRIPOS>SUBSTRUCTURE
     1 UNK         1 GROUP             0       ****    0 ROOT    
