@<TRIPOS>MOLECULE
3R137
137   139    1
SMALL
USER_CHARGES


@<TRIPOS>ATOM
      1 CA         26.2251   -8.0561   -0.0715 C.3       0 UNK        -0.2020 
      2 C          26.4103   -6.5460   -0.0798 C.2       0 UNK         0.4855 
      3 O          26.0404   -5.8781    0.8868 O.2       0 UNK        -0.5197 
      4 N          26.9894   -6.0040   -1.1579 N.am      1 UNK        -0.4892 
      5 CA         27.2033   -4.5670   -1.3591 C.3       1 UNK         0.0835 
      6 C6         28.1950   -4.2836   -2.5156 C.3       12 UNK        -0.0855 
      7 S7         29.7962   -5.1529   -2.3788 S.3       12 UNK        -0.2931 
      8 C8         30.7681   -4.0727   -1.2777 C.3       12 UNK         0.0378 
      9 C9         30.9446   -2.6656   -1.8321 C.ar      12 UNK        -0.0802 
     10 C10        31.8291   -2.4173   -2.8865 C.ar      12 UNK        -0.0944 
     11 C11        31.9951   -1.1191   -3.3830 C.ar      12 UNK        -0.0787 
     12 C12        31.2563   -0.0690   -2.8267 C.ar      12 UNK        -0.0862 
     13 C13        30.3668   -0.3074   -1.7762 C.ar      12 UNK        -0.0733 
     14 C14        30.2301   -1.6040   -1.2729 C.ar      12 UNK        -0.0832 
     15 C15        29.5554    0.8270   -1.1704 C.3       12 UNK         0.0240 
     16 S16        27.7746    0.5054   -1.3499 S.3       12 UNK        -0.2522 
     17 C17        27.2334    1.8394   -2.4666 C.3       12 UNK        -0.0967 
     18 CA         27.6745    1.7030   -3.9515 C.3       5 UNK         0.0660 
     19 N          27.6310    0.3301   -4.4655 N.am      5 UNK        -0.4015 
     20 C          28.0964   -0.0583   -5.6637 C.2       4 UNK         0.4946 
     21 O          28.6420    0.6950   -6.4683 O.2       4 UNK        -0.5353 
     22 CA         27.8651   -1.5245   -6.0625 C.3       4 UNK         0.0277 
     23 CB         29.0211   -2.4090   -5.5705 C.3       4 UNK        -0.1981 
     24 N          26.5797   -2.0409   -5.5832 N.am      4 UNK        -0.4209 
     25 C          25.3899   -1.5981   -6.0192 C.2       3 UNK         0.4942 
     26 O          25.2558   -0.7415   -6.8919 O.2       3 UNK        -0.5208 
     27 CA         24.1418   -2.1618   -5.3238 C.3       3 UNK         0.0250 
     28 CB         23.7653   -3.5336   -5.9048 C.3       3 UNK        -0.1990 
     29 N          24.3017   -2.2680   -3.8721 N.am      3 UNK        -0.4232 
     30 C          24.5210   -1.2431   -3.0391 C.2       2 UNK         0.4993 
     31 O          24.6123   -0.0723   -3.4112 O.2       2 UNK        -0.5286 
     32 CA         24.7160   -1.5840   -1.5507 C.3       2 UNK         0.0209 
     33 CB         23.3926   -2.0204   -0.8906 C.3       2 UNK        -0.1931 
     34 N          25.8039   -2.5466   -1.2996 N.am      2 UNK        -0.4546 
     35 C          25.8695   -3.8426   -1.6433 C.2       1 UNK         0.5154 
     36 O          24.9645   -4.4418   -2.2320 O.2       1 UNK        -0.5181 
     37 C          26.8252    2.6458   -4.8257 C.2       5 UNK         0.5014 
     38 O          27.2804    3.7368   -5.1709 O.2       5 UNK        -0.5248 
     39 N          25.6064    2.1945   -5.1604 N.am      6 UNK        -0.4434 
     40 CA         24.6609    2.8984   -6.0258 C.3       6 UNK         0.0363 
     41 CB         23.2880    2.2110   -5.9484 C.3       6 UNK        -0.1936 
     42 C          25.1439    2.9938   -7.4826 C.2       6 UNK         0.5081 
     43 O          25.0096    4.0555   -8.0918 O.2       6 UNK        -0.5248 
     44 N          25.6917    1.8919   -8.0149 N.am      7 UNK        -0.4718 
     45 CA         26.2314    1.8125   -9.3741 C.3       7 UNK         0.0273 
     46 CB         26.4709    0.3415   -9.7498 C.3       7 UNK        -0.1935 
     47 C          27.5200    2.6276   -9.5623 C.2       7 UNK         0.5018 
     48 O          27.6821    3.2554  -10.6099 O.2       7 UNK        -0.5186 
     49 N          28.4193    2.5783   -8.5673 N.am      8 UNK        -0.4240 
     50 CA         29.7471    3.2042   -8.4835 C.3       8 UNK         0.0235 
     51 CB         29.6621    4.7408   -8.5583 C.3       8 UNK        -0.2000 
     52 C          30.7656    2.6415   -9.4902 C.2       8 UNK         0.4941 
     53 O          31.8451    2.2131   -9.0850 O.2       8 UNK        -0.5273 
     54 N          30.3956    2.6035  -10.7765 N.am      9 UNK        -0.4262 
     55 CA         31.1846    2.0572  -11.8863 C.3       9 UNK         0.0264 
     56 CB         30.4999    2.4284  -13.2118 C.3       9 UNK        -0.1955 
     57 C          31.4147    0.5353  -11.8052 C.2       9 UNK         0.5031 
     58 O          32.3075    0.0254  -12.4831 O.2       9 UNK        -0.5390 
     59 N          30.6157   -0.1604  -10.9842 N.am      10 UNK        -0.4204 
     60 CA         30.7551   -1.5841  -10.6755 C.3       10 UNK         0.0237 
     61 CB         29.4826   -2.0648   -9.9591 C.3       10 UNK        -0.1985 
     62 C          31.9969   -1.9060   -9.8228 C.2       10 UNK         0.4970 
     63 O          32.4847   -3.0352   -9.8873 O.2       10 UNK        -0.4914 
     64 N          32.4714   -0.9346   -9.0320 N.am      11 UNK        -0.4285 
     65 CA         33.6544   -1.0653   -8.1728 C.3       11 UNK         0.1007 
     66 C          34.9736   -1.0444   -8.9901 C.2       11 UNK         0.5703 
     67 N          35.9723   -1.8120   -8.5747 N.am      11 UNK        -0.7361 
     68 O          35.1160   -0.3123   -9.9677 O.2       11 UNK        -0.4986 
     69 C69        33.6701    0.0202   -7.0682 C.3       12 UNK        -0.0947 
     70 S70        32.2252   -0.1084   -5.9626 S.3       12 UNK        -0.2240 
     71 C71        33.0013   -0.8437   -4.4914 C.3       12 UNK         0.0194 
     72 H72        26.6149   -8.5200   -0.9774 H         1 UNK         0.0906 
     73 H73        26.7423   -8.4932    0.7823 H         1 UNK         0.0906 
     74 H74        25.1668   -8.3034    0.0076 H         1 UNK         0.0906 
     75 H75        27.2709   -6.5960   -1.9263 H         1 UNK         0.3140 
     76 H76        27.6214   -4.1607   -0.4353 H         1 UNK         0.1085 
     77 H77        28.3759   -3.2126   -2.6004 H         1 UNK         0.0836 
     78 H78        27.7564   -4.5853   -3.4691 H         1 UNK         0.0836 
     79 H79        31.7501   -4.5224   -1.1240 H         1 UNK         0.0731 
     80 H80        30.2924   -4.0465   -0.2961 H         1 UNK         0.0731 
     81 H81        32.3922   -3.2366   -3.3125 H         1 UNK         0.1312 
     82 H82        31.3794    0.9334   -3.2138 H         1 UNK         0.1406 
     83 H83        29.5512   -1.7854   -0.4509 H         1 UNK         0.1631 
     84 H84        29.8169    1.7844   -1.6232 H         1 UNK         0.0717 
     85 H85        29.7953    0.9113   -0.1097 H         1 UNK         0.0717 
     86 H86        26.1448    1.8666   -2.3849 H         1 UNK         0.0934 
     87 H87        27.5751    2.7942   -2.0624 H         1 UNK         0.0934 
     88 H88        28.7140    2.0300   -4.0251 H         1 UNK         0.0739 
     89 H89        27.1751   -0.3453   -3.8719 H         1 UNK         0.3093 
     90 H90        27.8453   -1.5735   -7.1524 H         1 UNK         0.0818 
     91 H91        29.2036   -2.2860   -4.5037 H         1 UNK         0.0819 
     92 H92        28.8389   -3.4652   -5.7688 H         1 UNK         0.0819 
     93 H93        29.9480   -2.1422   -6.0796 H         1 UNK         0.0819 
     94 H94        26.5982   -2.7561   -4.8727 H         1 UNK         0.3041 
     95 H95        23.3185   -1.4703   -5.5155 H         1 UNK         0.0784 
     96 H96        23.6337   -3.4766   -6.9864 H         1 UNK         0.0793 
     97 H97        24.5327   -4.2832   -5.7072 H         1 UNK         0.0793 
     98 H98        22.8273   -3.8968   -5.4845 H         1 UNK         0.0793 
     99 H99        24.2910   -3.2001   -3.4634 H         1 UNK         0.3024 
    100 H100       25.0196   -0.6557   -1.0636 H         1 UNK         0.1171 
    101 H101       23.5216   -2.1868    0.1788 H         1 UNK         0.0786 
    102 H102       22.6294   -1.2499   -1.0080 H         1 UNK         0.0786 
    103 H103       22.9931   -2.9371   -1.3249 H         1 UNK         0.0786 
    104 H104       26.6129   -2.1409   -0.8484 H         1 UNK         0.2977 
    105 H105       25.3015    1.3028   -4.7810 H         1 UNK         0.3127 
    106 H106       24.5537    3.9161   -5.6442 H         1 UNK         0.0770 
    107 H107       23.3315    1.1793   -6.2993 H         1 UNK         0.0814 
    108 H108       22.5546    2.7346   -6.5630 H         1 UNK         0.0814 
    109 H109       22.9075    2.1996   -4.9268 H         1 UNK         0.0814 
    110 H110       25.6953    1.0329   -7.4696 H         1 UNK         0.2983 
    111 H111       25.4830    2.2198  -10.0577 H         1 UNK         0.0947 
    112 H112       26.8684    0.2530  -10.7618 H         1 UNK         0.0806 
    113 H113       25.5438   -0.2309   -9.7148 H         1 UNK         0.0806 
    114 H114       27.1804   -0.1353   -9.0733 H         1 UNK         0.0806 
    115 H115       28.2135    1.9659   -7.7794 H         1 UNK         0.3000 
    116 H116       30.1207    2.9481   -7.4902 H         1 UNK         0.0850 
    117 H117       30.6424    5.1913   -8.3981 H         1 UNK         0.0810 
    118 H118       28.9946    5.1342   -7.7913 H         1 UNK         0.0810 
    119 H119       29.3007    5.0880   -9.5265 H         1 UNK         0.0810 
    120 H120       29.4645    2.9538  -10.9951 H         1 UNK         0.3040 
    121 H121       32.1673    2.5325  -11.8602 H         1 UNK         0.0766 
    122 H122       31.0733    2.0631  -14.0651 H         1 UNK         0.0812 
    123 H123       30.4103    3.5092  -13.3231 H         1 UNK         0.0812 
    124 H124       29.4994    1.9995  -13.2824 H         1 UNK         0.0812 
    125 H125       29.9061    0.3491  -10.4801 H         1 UNK         0.3205 
    126 H126       30.8498   -2.1293  -11.6171 H         1 UNK         0.0754 
    127 H127       29.3348   -1.5404   -9.0145 H         1 UNK         0.0769 
    128 H128       29.5394   -3.1308   -9.7339 H         1 UNK         0.0769 
    129 H129       28.5959   -1.9125  -10.5747 H         1 UNK         0.0769 
    130 H130       32.0550   -0.0129   -9.0623 H         1 UNK         0.2981 
    131 H131       33.5909   -2.0366   -7.6772 H         1 UNK         0.0541 
    132 H132       35.8729   -2.4082   -7.7679 H         1 UNK         0.3459 
    133 H133       36.8425   -1.8001   -9.0835 H         1 UNK         0.3459 
    134 H134       33.6766    1.0179   -7.5100 H         1 UNK         0.0612 
    135 H135       34.5821   -0.0492   -6.4724 H         1 UNK         0.0612 
    136 H136       33.7677   -0.1661   -4.1126 H         1 UNK         0.0624 
    137 H137       33.5118   -1.7620   -4.7857 H         1 UNK         0.0624 
@<TRIPOS>BOND
     1    1    2 1    
     2    1   72 1    
     3    1   73 1    
     4    1   74 1    
     5    2    3 2    
     6    2    4 am   BACKBONE|DICT|INTERRES
     7    4    5 1    
     8    4   75 1    
     9    5    6 1    
    10    5   35 1    
    11    5   76 1    
    12    6    7 1    
    13    6   77 1    
    14    6   78 1    
    15    7    8 1    
    16    8    9 1    
    17    8   79 1    
    18    8   80 1    
    19    9   10 ar   
    20    9   14 ar   
    21   10   11 ar   
    22   10   81 1    
    23   11   12 ar   
    24   11   71 1    
    25   12   13 ar   
    26   12   82 1    
    27   13   14 ar   
    28   13   15 1    
    29   14   83 1    
    30   15   16 1    
    31   15   84 1    
    32   15   85 1    
    33   16   17 1    
    34   17   18 1    
    35   17   86 1    
    36   17   87 1    
    37   18   19 1    
    38   18   37 1    
    39   18   88 1    
    40   19   20 am   BACKBONE|DICT|INTERRES
    41   19   89 1    
    42   20   21 2    
    43   20   22 1    
    44   22   23 1    
    45   22   24 1    
    46   22   90 1    
    47   23   91 1    
    48   23   92 1    
    49   23   93 1    
    50   24   25 am   BACKBONE|DICT|INTERRES
    51   24   94 1    
    52   25   26 2    
    53   25   27 1    
    54   27   28 1    
    55   27   29 1    
    56   27   95 1    
    57   28   96 1    
    58   28   97 1    
    59   28   98 1    
    60   29   30 am   BACKBONE|DICT|INTERRES
    61   29   99 1    
    62   30   31 2    
    63   30   32 1    
    64   32   33 1    
    65   32   34 1    
    66   32  100 1    
    67   33  101 1    
    68   33  102 1    
    69   33  103 1    
    70   34   35 am   BACKBONE|DICT|INTERRES
    71   34  104 1    
    72   35   36 2    
    73   37   38 2    
    74   37   39 am   BACKBONE|DICT|INTERRES
    75   39   40 1    
    76   39  105 1    
    77   40   41 1    
    78   40   42 1    
    79   40  106 1    
    80   41  107 1    
    81   41  108 1    
    82   41  109 1    
    83   42   43 2    
    84   42   44 am   BACKBONE|DICT|INTERRES
    85   44   45 1    
    86   44  110 1    
    87   45   46 1    
    88   45   47 1    
    89   45  111 1    
    90   46  112 1    
    91   46  113 1    
    92   46  114 1    
    93   47   48 2    
    94   47   49 am   BACKBONE|DICT|INTERRES
    95   49   50 1    
    96   49  115 1    
    97   50   51 1    
    98   50   52 1    
    99   50  116 1    
   100   51  117 1    
   101   51  118 1    
   102   51  119 1    
   103   52   53 2    
   104   52   54 am   BACKBONE|DICT|INTERRES
   105   54   55 1    
   106   54  120 1    
   107   55   56 1    
   108   55   57 1    
   109   55  121 1    
   110   56  122 1    
   111   56  123 1    
   112   56  124 1    
   113   57   58 2    
   114   57   59 am   BACKBONE|DICT|INTERRES
   115   59   60 1    
   116   59  125 1    
   117   60   61 1    
   118   60   62 1    
   119   60  126 1    
   120   61  127 1    
   121   61  128 1    
   122   61  129 1    
   123   62   63 2    
   124   62   64 am   BACKBONE|DICT|INTERRES
   125   64   65 1    
   126   64  130 1    
   127   65   66 1    
   128   65   69 1    
   129   65  131 1    
   130   66   67 am   BACKBONE|DICT|INTERRES
   131   66   68 2    
   132   67  132 1    
   133   67  133 1    
   134   69   70 1    
   135   69  134 1    
   136   69  135 1    
   137   70   71 1    
   138   71  136 1    
   139   71  137 1    
@<TRIPOS>SUBSTRUCTURE
     1 UNK         1 GROUP             0       ****    0 ROOT    
