@<TRIPOS>MOLECULE
3R137
137   139    1
SMALL
USER_CHARGES


@<TRIPOS>ATOM
      1 CA         24.1008   -5.9636   -0.8919 C.3       0 UNK        -0.2020 
      2 C          24.8164   -4.7211   -0.3838 C.2       0 UNK         0.4855 
      3 O          24.1704   -3.7067   -0.1176 O.2       0 UNK        -0.5197 
      4 N          26.1452   -4.7910   -0.2376 N.am      1 UNK        -0.4892 
      5 CA         26.9969   -3.6581    0.1344 C.3       1 UNK         0.0835 
      6 C6         28.3823   -4.1249    0.6579 C.3       12 UNK        -0.0855 
      7 S7         29.3528   -5.1377   -0.5199 S.3       12 UNK        -0.2931 
      8 C8         30.5508   -3.9060   -1.1487 C.3       12 UNK         0.0378 
      9 C9         30.7816   -3.9372   -2.6597 C.ar      12 UNK        -0.0802 
     10 C10        31.9750   -3.4116   -3.1669 C.ar      12 UNK        -0.0944 
     11 C11        32.1905   -3.3282   -4.5455 C.ar      12 UNK        -0.0787 
     12 C12        31.2123   -3.7944   -5.4256 C.ar      12 UNK        -0.0862 
     13 C13        30.0097   -4.3116   -4.9383 C.ar      12 UNK        -0.0733 
     14 C14        29.8048   -4.3902   -3.5574 C.ar      12 UNK        -0.0832 
     15 C15        28.9077   -4.7168   -5.9106 C.3       12 UNK         0.0240 
     16 S16        27.3930   -3.7144   -5.7144 S.3       12 UNK        -0.2522 
     17 C17        28.0395   -2.0059   -5.6851 C.3       12 UNK        -0.0967 
     18 CA         27.3509   -1.0883   -6.7155 C.3       5 UNK         0.0660 
     19 N          25.9131   -0.9432   -6.4612 N.am      5 UNK        -0.4015 
     20 C          25.0430   -0.2123   -7.1709 C.2       4 UNK         0.4946 
     21 O          25.3631    0.4592   -8.1527 O.2       4 UNK        -0.5353 
     22 CA         23.5781   -0.1799   -6.6964 C.3       4 UNK         0.0277 
     23 CB         22.7905   -1.3898   -7.2355 C.3       4 UNK        -0.1981 
     24 N          23.4254   -0.0154   -5.2417 N.am      4 UNK        -0.4209 
     25 C          23.7560   -0.8739   -4.2669 C.2       3 UNK         0.4942 
     26 O          24.1599   -2.0216   -4.4619 O.2       3 UNK        -0.5208 
     27 CA         23.6869   -0.3310   -2.8298 C.3       3 UNK         0.0250 
     28 CB         22.5829   -1.0416   -2.0307 C.3       3 UNK        -0.1990 
     29 N          24.9681   -0.4807   -2.1321 N.am      3 UNK        -0.4232 
     30 C          26.1455    0.0135   -2.5481 C.2       2 UNK         0.4993 
     31 O          26.2781    0.6935   -3.5676 O.2       2 UNK        -0.5286 
     32 CA         27.3929   -0.2761   -1.6894 C.3       2 UNK         0.0209 
     33 CB         27.8470    0.9982   -0.9586 C.3       2 UNK        -0.1931 
     34 N          27.2305   -1.3582   -0.7097 N.am      2 UNK        -0.4546 
     35 C          27.1101   -2.6529   -1.0334 C.2       1 UNK         0.5154 
     36 O          27.0978   -3.0581   -2.1962 O.2       1 UNK        -0.5181 
     37 C          28.0992    0.2558   -6.8035 C.2       5 UNK         0.5014 
     38 O          29.0004    0.3773   -7.6337 O.2       5 UNK        -0.5248 
     39 N          27.6921    1.2553   -6.0080 N.am      6 UNK        -0.4434 
     40 CA         28.2089    2.6278   -6.0555 C.3       6 UNK         0.0363 
     41 CB         27.5326    3.4601   -4.9548 C.3       6 UNK        -0.1936 
     42 C          28.0602    3.3254   -7.4242 C.2       6 UNK         0.5081 
     43 O          28.8288    4.2451   -7.7047 O.2       6 UNK        -0.5248 
     44 N          27.1039    2.8771   -8.2491 N.am      7 UNK        -0.4718 
     45 CA         26.9269    3.3149   -9.6331 C.3       7 UNK         0.0273 
     46 CB         25.4493    3.6710   -9.8673 C.3       7 UNK        -0.1935 
     47 C          27.3817    2.2307  -10.6229 C.2       7 UNK         0.5018 
     48 O          28.0511    2.5581  -11.6028 O.2       7 UNK        -0.5186 
     49 N          26.9927    0.9715  -10.3717 N.am      8 UNK        -0.4240 
     50 CA         27.2059   -0.1610  -11.2770 C.3       8 UNK         0.0235 
     51 CB         26.2944   -1.3286  -10.8640 C.3       8 UNK        -0.2000 
     52 C          28.6694   -0.6218  -11.3731 C.2       8 UNK         0.4941 
     53 O          29.1262   -0.9280  -12.4755 O.2       8 UNK        -0.5273 
     54 N          29.3701   -0.6725  -10.2333 N.am      9 UNK        -0.4262 
     55 CA         30.7907   -1.0189  -10.1467 C.3       9 UNK         0.0264 
     56 CB         31.0307   -1.9617   -8.9527 C.3       9 UNK        -0.1955 
     57 C          31.6459    0.2488  -10.0198 C.2       9 UNK         0.5031 
     58 O          32.6916    0.3331  -10.6649 O.2       9 UNK        -0.5390 
     59 N          31.1797    1.2053   -9.1998 N.am      10 UNK        -0.4204 
     60 CA         31.7931    2.5080   -8.9086 C.3       10 UNK         0.0237 
     61 CB         31.7478    3.4229  -10.1505 C.3       10 UNK        -0.1985 
     62 C          33.2003    2.3930   -8.2869 C.2       10 UNK         0.4970 
     63 O          34.0794    3.2045   -8.5825 O.2       10 UNK        -0.4914 
     64 N          33.3798    1.3803   -7.4309 N.am      11 UNK        -0.4285 
     65 CA         34.6214    1.0746   -6.7043 C.3       11 UNK         0.1007 
     66 C          34.9744    2.0535   -5.5447 C.2       11 UNK         0.5703 
     67 N          34.0885    2.9551   -5.1373 N.am      11 UNK        -0.7361 
     68 O          36.0821    2.0018   -5.0150 O.2       11 UNK        -0.4986 
     69 C69        34.6474   -0.4099   -6.2486 C.3       12 UNK        -0.0947 
     70 S70        33.1854   -0.8847   -5.2660 S.3       12 UNK        -0.2240 
     71 C71        33.4479   -2.6739   -5.0915 C.3       12 UNK         0.0194 
     72 H72        23.3562   -6.2913   -0.1671 H         1 UNK         0.0906 
     73 H73        23.5910   -5.7434   -1.8296 H         1 UNK         0.0906 
     74 H74        24.7910   -6.7888   -1.0667 H         1 UNK         0.0906 
     75 H75        26.6410   -5.6287   -0.5086 H         1 UNK         0.3140 
     76 H76        26.4999   -3.1407    0.9586 H         1 UNK         0.1085 
     77 H77        28.9728   -3.2707    0.9939 H         1 UNK         0.0836 
     78 H78        28.2337   -4.7296    1.5540 H         1 UNK         0.0836 
     79 H79        30.2181   -2.8985   -0.8968 H         1 UNK         0.0731 
     80 H80        31.4954   -4.0576   -0.6240 H         1 UNK         0.0731 
     81 H81        32.7246   -3.0271   -2.4884 H         1 UNK         0.1312 
     82 H82        31.3706   -3.7099   -6.4920 H         1 UNK         0.1406 
     83 H83        28.8555   -4.7570   -3.1923 H         1 UNK         0.1631 
     84 H84        28.6602   -5.7676   -5.7556 H         1 UNK         0.0717 
     85 H85        29.2497   -4.6296   -6.9431 H         1 UNK         0.0717 
     86 H86        27.9162   -1.6163   -4.6730 H         1 UNK         0.0934 
     87 H87        29.1136   -2.0210   -5.8726 H         1 UNK         0.0934 
     88 H88        27.4466   -1.5591   -7.6949 H         1 UNK         0.0739 
     89 H89        25.5402   -1.4738   -5.6775 H         1 UNK         0.3093 
     90 H90        23.1342    0.7145   -7.1369 H         1 UNK         0.0818 
     91 H91        21.7414   -1.3419   -6.9437 H         1 UNK         0.0819 
     92 H92        22.8231   -1.4165   -8.3256 H         1 UNK         0.0819 
     93 H93        23.1949   -2.3377   -6.8798 H         1 UNK         0.0819 
     94 H94        23.1328    0.9098   -4.9573 H         1 UNK         0.3041 
     95 H95        23.4567    0.7359   -2.8608 H         1 UNK         0.0784 
     96 H96        21.6117   -0.9194   -2.5122 H         1 UNK         0.0793 
     97 H97        22.7731   -2.1128   -1.9485 H         1 UNK         0.0793 
     98 H98        22.4977   -0.6382   -1.0215 H         1 UNK         0.0793 
     99 H99        24.9655   -1.0651   -1.3091 H         1 UNK         0.3024 
    100 H100       28.1858   -0.5696   -2.3815 H         1 UNK         0.1171 
    101 H101       28.0156    1.8142   -1.6630 H         1 UNK         0.0786 
    102 H102       28.7838    0.8380   -0.4244 H         1 UNK         0.0786 
    103 H103       27.1014    1.3386   -0.2391 H         1 UNK         0.0786 
    104 H104       27.2298   -1.0893    0.2643 H         1 UNK         0.2977 
    105 H105       26.9928    1.0587   -5.2939 H         1 UNK         0.3127 
    106 H106       29.2777    2.5781   -5.8380 H         1 UNK         0.0770 
    107 H107       26.4504    3.4953   -5.0855 H         1 UNK         0.0814 
    108 H108       27.8975    4.4882   -4.9592 H         1 UNK         0.0814 
    109 H109       27.7372    3.0500   -3.9659 H         1 UNK         0.0814 
    110 H110       26.5252    2.1007   -7.9463 H         1 UNK         0.2983 
    111 H111       27.5225    4.2090   -9.8308 H         1 UNK         0.0947 
    112 H112       25.2835    3.9933  -10.8962 H         1 UNK         0.0806 
    113 H113       25.1333    4.4873   -9.2175 H         1 UNK         0.0806 
    114 H114       24.7908    2.8217   -9.6801 H         1 UNK         0.0806 
    115 H115       26.4117    0.7940   -9.5533 H         1 UNK         0.3000 
    116 H116       26.9020    0.1580  -12.2765 H         1 UNK         0.0850 
    117 H117       26.4016   -2.1693  -11.5509 H         1 UNK         0.0810 
    118 H118       25.2447   -1.0342  -10.8741 H         1 UNK         0.0810 
    119 H119       26.5276   -1.6934   -9.8641 H         1 UNK         0.0810 
    120 H120       28.9364   -0.3504   -9.3736 H         1 UNK         0.3040 
    121 H121       31.1047   -1.5446  -11.0511 H         1 UNK         0.0766 
    122 H122       32.0773   -2.2658   -8.9046 H         1 UNK         0.0812 
    123 H123       30.4335   -2.8694   -9.0402 H         1 UNK         0.0812 
    124 H124       30.7887   -1.4944   -7.9982 H         1 UNK         0.0812 
    125 H125       30.3336    0.9936   -8.6713 H         1 UNK         0.3205 
    126 H126       31.1701    2.9689   -8.1418 H         1 UNK         0.0754 
    127 H127       32.0807    4.4324   -9.9062 H         1 UNK         0.0769 
    128 H128       30.7333    3.5044  -10.5420 H         1 UNK         0.0769 
    129 H129       32.3885    3.0520  -10.9511 H         1 UNK         0.0769 
    130 H130       32.6028    0.7684   -7.2305 H         1 UNK         0.2981 
    131 H131       35.4354    1.1910   -7.4222 H         1 UNK         0.0541 
    132 H132       34.3344    3.5854   -4.3905 H         1 UNK         0.3459 
    133 H133       33.1778    3.0053   -5.5626 H         1 UNK         0.3459 
    134 H134       35.5510   -0.6339   -5.6785 H         1 UNK         0.0612 
    135 H135       34.6839   -1.0531   -7.1293 H         1 UNK         0.0612 
    136 H136       33.7060   -3.1051   -6.0601 H         1 UNK         0.0624 
    137 H137       34.2952   -2.8568   -4.4290 H         1 UNK         0.0624 
@<TRIPOS>BOND
     1    1    2 1    
     2    1   72 1    
     3    1   73 1    
     4    1   74 1    
     5    2    3 2    
     6    2    4 am   BACKBONE|DICT|INTERRES
     7    4    5 1    
     8    4   75 1    
     9    5    6 1    
    10    5   35 1    
    11    5   76 1    
    12    6    7 1    
    13    6   77 1    
    14    6   78 1    
    15    7    8 1    
    16    8    9 1    
    17    8   79 1    
    18    8   80 1    
    19    9   10 ar   
    20    9   14 ar   
    21   10   11 ar   
    22   10   81 1    
    23   11   12 ar   
    24   11   71 1    
    25   12   13 ar   
    26   12   82 1    
    27   13   14 ar   
    28   13   15 1    
    29   14   83 1    
    30   15   16 1    
    31   15   84 1    
    32   15   85 1    
    33   16   17 1    
    34   17   18 1    
    35   17   86 1    
    36   17   87 1    
    37   18   19 1    
    38   18   37 1    
    39   18   88 1    
    40   19   20 am   BACKBONE|DICT|INTERRES
    41   19   89 1    
    42   20   21 2    
    43   20   22 1    
    44   22   23 1    
    45   22   24 1    
    46   22   90 1    
    47   23   91 1    
    48   23   92 1    
    49   23   93 1    
    50   24   25 am   BACKBONE|DICT|INTERRES
    51   24   94 1    
    52   25   26 2    
    53   25   27 1    
    54   27   28 1    
    55   27   29 1    
    56   27   95 1    
    57   28   96 1    
    58   28   97 1    
    59   28   98 1    
    60   29   30 am   BACKBONE|DICT|INTERRES
    61   29   99 1    
    62   30   31 2    
    63   30   32 1    
    64   32   33 1    
    65   32   34 1    
    66   32  100 1    
    67   33  101 1    
    68   33  102 1    
    69   33  103 1    
    70   34   35 am   BACKBONE|DICT|INTERRES
    71   34  104 1    
    72   35   36 2    
    73   37   38 2    
    74   37   39 am   BACKBONE|DICT|INTERRES
    75   39   40 1    
    76   39  105 1    
    77   40   41 1    
    78   40   42 1    
    79   40  106 1    
    80   41  107 1    
    81   41  108 1    
    82   41  109 1    
    83   42   43 2    
    84   42   44 am   BACKBONE|DICT|INTERRES
    85   44   45 1    
    86   44  110 1    
    87   45   46 1    
    88   45   47 1    
    89   45  111 1    
    90   46  112 1    
    91   46  113 1    
    92   46  114 1    
    93   47   48 2    
    94   47   49 am   BACKBONE|DICT|INTERRES
    95   49   50 1    
    96   49  115 1    
    97   50   51 1    
    98   50   52 1    
    99   50  116 1    
   100   51  117 1    
   101   51  118 1    
   102   51  119 1    
   103   52   53 2    
   104   52   54 am   BACKBONE|DICT|INTERRES
   105   54   55 1    
   106   54  120 1    
   107   55   56 1    
   108   55   57 1    
   109   55  121 1    
   110   56  122 1    
   111   56  123 1    
   112   56  124 1    
   113   57   58 2    
   114   57   59 am   BACKBONE|DICT|INTERRES
   115   59   60 1    
   116   59  125 1    
   117   60   61 1    
   118   60   62 1    
   119   60  126 1    
   120   61  127 1    
   121   61  128 1    
   122   61  129 1    
   123   62   63 2    
   124   62   64 am   BACKBONE|DICT|INTERRES
   125   64   65 1    
   126   64  130 1    
   127   65   66 1    
   128   65   69 1    
   129   65  131 1    
   130   66   67 am   BACKBONE|DICT|INTERRES
   131   66   68 2    
   132   67  132 1    
   133   67  133 1    
   134   69   70 1    
   135   69  134 1    
   136   69  135 1    
   137   70   71 1    
   138   71  136 1    
   139   71  137 1    
@<TRIPOS>SUBSTRUCTURE
     1 UNK         1 GROUP             0       ****    0 ROOT    
