@<TRIPOS>MOLECULE
3R137
137   139    1
SMALL
USER_CHARGES


@<TRIPOS>ATOM
      1 CA         26.6136   -6.1164   -3.1626 C.3       0 UNK        -0.2020 
      2 C          26.3198   -5.0452   -2.1225 C.2       0 UNK         0.4855 
      3 O          25.7735   -5.3508   -1.0628 O.2       0 UNK        -0.5197 
      4 N          26.6700   -3.7917   -2.4217 N.am      1 UNK        -0.4892 
      5 CA         26.4058   -2.6098   -1.6057 C.3       1 UNK         0.0835 
      6 C6         27.3956   -2.4711   -0.4125 C.3       12 UNK        -0.0855 
      7 S7         29.0990   -1.9627   -0.8476 S.3       12 UNK        -0.2931 
      8 C8         29.9552   -3.5533   -1.0760 C.3       12 UNK         0.0378 
      9 C9         30.6903   -3.5853   -2.4088 C.ar      12 UNK        -0.0802 
     10 C10        31.8613   -2.8401   -2.5830 C.ar      12 UNK        -0.0944 
     11 C11        32.5290   -2.8402   -3.8119 C.ar      12 UNK        -0.0787 
     12 C12        32.0307   -3.6168   -4.8625 C.ar      12 UNK        -0.0862 
     13 C13        30.8724   -4.3807   -4.6970 C.ar      12 UNK        -0.0733 
     14 C14        30.2051   -4.3587   -3.4679 C.ar      12 UNK        -0.0832 
     15 C15        30.3652   -5.2514   -5.8396 C.3       12 UNK         0.0240 
     16 S16        29.6221   -4.2734   -7.1841 S.3       12 UNK        -0.2522 
     17 C17        28.0820   -3.7005   -6.3958 C.3       12 UNK        -0.0967 
     18 CA         27.4824   -2.4208   -7.0408 C.3       5 UNK         0.0660 
     19 N          26.1464   -2.1348   -6.5147 N.am      5 UNK        -0.4015 
     20 C          25.0590   -2.8356   -6.8719 C.2       4 UNK         0.4946 
     21 O          25.0525   -3.6594   -7.7879 O.2       4 UNK        -0.5353 
     22 CA         23.7683   -2.6478   -6.0579 C.3       4 UNK         0.0277 
     23 CB         23.6985   -3.6897   -4.9291 C.3       4 UNK        -0.1981 
     24 N          23.6367   -1.3132   -5.4817 N.am      4 UNK        -0.4209 
     25 C          23.1450   -0.2498   -6.1300 C.2       3 UNK         0.4942 
     26 O          22.7056   -0.2943   -7.2792 O.2       3 UNK        -0.5208 
     27 CA         23.1202    1.0905   -5.3702 C.3       3 UNK         0.0250 
     28 CB         21.6758    1.4896   -5.0248 C.3       3 UNK        -0.1990 
     29 N          23.9222    1.0972   -4.1416 N.am      3 UNK        -0.4232 
     30 C          25.2595    1.0510   -4.1091 C.2       2 UNK         0.4993 
     31 O          25.9654    0.9659   -5.1153 O.2       2 UNK        -0.5286 
     32 CA         25.9185    1.0670   -2.7204 C.3       2 UNK         0.0209 
     33 CB         25.2945    2.1226   -1.7882 C.3       2 UNK        -0.1931 
     34 N          25.9227   -0.2405   -2.0501 N.am      2 UNK        -0.4546 
     35 C          26.3916   -1.3934   -2.5516 C.2       1 UNK         0.5154 
     36 O          26.8155   -1.5276   -3.7049 O.2       1 UNK        -0.5181 
     37 C          28.4124   -1.2037   -6.9052 C.2       5 UNK         0.5014 
     38 O          28.8895   -0.6923   -7.9224 O.2       5 UNK        -0.5248 
     39 N          28.6848   -0.7860   -5.6613 N.am      6 UNK        -0.4434 
     40 CA         29.7460    0.1591   -5.3088 C.3       6 UNK         0.0363 
     41 CB         29.8804    0.2627   -3.7839 C.3       6 UNK        -0.1936 
     42 C          29.5863    1.5363   -5.9591 C.2       6 UNK         0.5081 
     43 O          30.4767    1.9630   -6.6915 O.2       6 UNK        -0.5248 
     44 N          28.4434    2.1859   -5.7178 N.am      7 UNK        -0.4718 
     45 CA         28.0974    3.4721   -6.3252 C.3       7 UNK         0.0273 
     46 CB         27.0845    4.2042   -5.4293 C.3       7 UNK        -0.1935 
     47 C          27.5393    3.3018   -7.7469 C.2       7 UNK         0.5018 
     48 O          27.5925    4.2508   -8.5298 O.2       7 UNK        -0.5186 
     49 N          27.0061    2.1090   -8.0484 N.am      8 UNK        -0.4240 
     50 CA         26.4328    1.7531   -9.3447 C.3       8 UNK         0.0235 
     51 CB         25.6685    0.4259   -9.2286 C.3       8 UNK        -0.2000 
     52 C          27.4763    1.6789  -10.4695 C.2       8 UNK         0.4941 
     53 O          27.2181    2.2096  -11.5513 O.2       8 UNK        -0.5273 
     54 N          28.6160    1.0199  -10.2128 N.am      9 UNK        -0.4262 
     55 CA         29.6512    0.7888  -11.2249 C.3       9 UNK         0.0264 
     56 CB         29.2408   -0.3895  -12.1313 C.3       9 UNK        -0.1955 
     57 C          31.0637    0.5536  -10.6678 C.2       9 UNK         0.5031 
     58 O          32.0192    0.8269  -11.3970 O.2       9 UNK        -0.5390 
     59 N          31.1957    0.0094   -9.4494 N.am      10 UNK        -0.4204 
     60 CA         32.4755   -0.4374   -8.8920 C.3       10 UNK         0.0237 
     61 CB         32.2480   -1.7155   -8.0573 C.3       10 UNK        -0.1985 
     62 C          33.2428    0.6868   -8.1621 C.2       10 UNK         0.4970 
     63 O          33.6152    1.6781   -8.7907 O.2       10 UNK        -0.4914 
     64 N          33.5471    0.4699   -6.8774 N.am      11 UNK        -0.4285 
     65 CA         34.4745    1.2563   -6.0465 C.3       11 UNK         0.1007 
     66 C          34.0802    2.7264   -5.7164 C.2       11 UNK         0.5703 
     67 N          32.8649    3.1847   -5.9746 N.am      11 UNK        -0.7361 
     68 O          34.9161    3.4822   -5.2252 O.2       11 UNK        -0.4986 
     69 C69        34.8959    0.4642   -4.7763 C.3       12 UNK        -0.0947 
     70 S70        33.4794   -0.2321   -3.8537 S.3       12 UNK        -0.2240 
     71 C71        33.7967   -2.0196   -4.0032 C.3       12 UNK         0.0194 
     72 H72        26.9818   -5.6917   -4.0960 H         1 UNK         0.0906 
     73 H73        27.3615   -6.8126   -2.7841 H         1 UNK         0.0906 
     74 H74        25.7075   -6.6791   -3.3858 H         1 UNK         0.0906 
     75 H75        27.0737   -3.5523   -3.3183 H         1 UNK         0.3140 
     76 H76        25.3936   -2.7049   -1.2056 H         1 UNK         0.1085 
     77 H77        27.4287   -3.3975    0.1628 H         1 UNK         0.0836 
     78 H78        27.0116   -1.7248    0.2846 H         1 UNK         0.0836 
     79 H79        30.6661   -3.6960   -0.2610 H         1 UNK         0.0731 
     80 H80        29.2469   -4.3802   -1.0113 H         1 UNK         0.0731 
     81 H81        32.2409   -2.2399   -1.7673 H         1 UNK         0.1312 
     82 H82        32.5463   -3.6384   -5.8123 H         1 UNK         0.1406 
     83 H83        29.3124   -4.9510   -3.3320 H         1 UNK         0.1631 
     84 H84        29.6387   -5.9827   -5.4817 H         1 UNK         0.0717 
     85 H85        31.1985   -5.8262   -6.2462 H         1 UNK         0.0717 
     86 H86        27.3705   -4.5247   -6.4638 H         1 UNK         0.0934 
     87 H87        28.2495   -3.5403   -5.3308 H         1 UNK         0.0934 
     88 H88        27.3839   -2.6032   -8.1136 H         1 UNK         0.0739 
     89 H89        26.0938   -1.4638   -5.7558 H         1 UNK         0.3093 
     90 H90        22.9272   -2.8274   -6.7316 H         1 UNK         0.0818 
     91 H91        22.7480   -3.6361   -4.3982 H         1 UNK         0.0819 
     92 H92        23.7901   -4.7026   -5.3243 H         1 UNK         0.0819 
     93 H93        24.4972   -3.5505   -4.2016 H         1 UNK         0.0819 
     94 H94        23.9679   -1.1822   -4.5379 H         1 UNK         0.3041 
     95 H95        23.5322    1.8451   -6.0443 H         1 UNK         0.0784 
     96 H96        21.0567    1.5339   -5.9221 H         1 UNK         0.0793 
     97 H97        21.2111    0.7755   -4.3438 H         1 UNK         0.0793 
     98 H98        21.6361    2.4747   -4.5593 H         1 UNK         0.0793 
     99 H99        23.4171    1.1532   -3.2689 H         1 UNK         0.3024 
    100 H100       26.9554    1.3603   -2.8781 H         1 UNK         0.1171 
    101 H101       25.2262    3.0932   -2.2825 H         1 UNK         0.0786 
    102 H102       25.9036    2.2641   -0.8951 H         1 UNK         0.0786 
    103 H103       24.2912    1.8476   -1.4612 H         1 UNK         0.0786 
    104 H104       25.5969   -0.2404   -1.0942 H         1 UNK         0.2977 
    105 H105       28.1640   -1.1871   -4.8838 H         1 UNK         0.3127 
    106 H106       30.6850   -0.2542   -5.6748 H         1 UNK         0.0770 
    107 H107       28.9460    0.5412   -3.3047 H         1 UNK         0.0814 
    108 H108       30.6292    1.0045   -3.5033 H         1 UNK         0.0814 
    109 H109       30.1964   -0.6889   -3.3594 H         1 UNK         0.0814 
    110 H110       27.7021    1.7054   -5.2152 H         1 UNK         0.2983 
    111 H111       28.9981    4.0868   -6.3938 H         1 UNK         0.0947 
    112 H112       26.8812    5.2046   -5.8136 H         1 UNK         0.0806 
    113 H113       27.4607    4.3181   -4.4126 H         1 UNK         0.0806 
    114 H114       26.1307    3.6785   -5.3799 H         1 UNK         0.0806 
    115 H115       26.9880    1.4061   -7.3223 H         1 UNK         0.3000 
    116 H116       25.7145    2.5321   -9.6094 H         1 UNK         0.0850 
    117 H117       25.1521    0.1917  -10.1603 H         1 UNK         0.0810 
    118 H118       24.9153    0.4751   -8.4450 H         1 UNK         0.0810 
    119 H119       26.3301   -0.4107   -9.0069 H         1 UNK         0.0810 
    120 H120       28.7381    0.5836   -9.3025 H         1 UNK         0.3040 
    121 H121       29.7266    1.6848  -11.8454 H         1 UNK         0.0766 
    122 H122       30.0055   -0.5941  -12.8821 H         1 UNK         0.0812 
    123 H123       28.3153   -0.1801  -12.6677 H         1 UNK         0.0812 
    124 H124       29.0949   -1.3040  -11.5551 H         1 UNK         0.0812 
    125 H125       30.3703   -0.1928   -8.8899 H         1 UNK         0.3205 
    126 H126       33.1259   -0.7365   -9.7169 H         1 UNK         0.0754 
    127 H127       33.1868   -2.1100   -7.6665 H         1 UNK         0.0769 
    128 H128       31.8122   -2.5034   -8.6721 H         1 UNK         0.0769 
    129 H129       31.5721   -1.5545   -7.2202 H         1 UNK         0.0769 
    130 H130       33.1665   -0.3471   -6.4261 H         1 UNK         0.2981 
    131 H131       35.3782    1.3616   -6.6497 H         1 UNK         0.0541 
    132 H132       32.1390    2.5887   -6.3671 H         1 UNK         0.3459 
    133 H133       32.6525    4.1443   -5.7586 H         1 UNK         0.3459 
    134 H134       35.4826    1.0832   -4.0952 H         1 UNK         0.0612 
    135 H135       35.5668   -0.3448   -5.0676 H         1 UNK         0.0612 
    136 H136       34.2329   -2.2316   -4.9805 H         1 UNK         0.0624 
    137 H137       34.5394   -2.3150   -3.2609 H         1 UNK         0.0624 
@<TRIPOS>BOND
     1    1    2 1    
     2    1   72 1    
     3    1   73 1    
     4    1   74 1    
     5    2    3 2    
     6    2    4 am   BACKBONE|DICT|INTERRES
     7    4    5 1    
     8    4   75 1    
     9    5    6 1    
    10    5   35 1    
    11    5   76 1    
    12    6    7 1    
    13    6   77 1    
    14    6   78 1    
    15    7    8 1    
    16    8    9 1    
    17    8   79 1    
    18    8   80 1    
    19    9   10 ar   
    20    9   14 ar   
    21   10   11 ar   
    22   10   81 1    
    23   11   12 ar   
    24   11   71 1    
    25   12   13 ar   
    26   12   82 1    
    27   13   14 ar   
    28   13   15 1    
    29   14   83 1    
    30   15   16 1    
    31   15   84 1    
    32   15   85 1    
    33   16   17 1    
    34   17   18 1    
    35   17   86 1    
    36   17   87 1    
    37   18   19 1    
    38   18   37 1    
    39   18   88 1    
    40   19   20 am   BACKBONE|DICT|INTERRES
    41   19   89 1    
    42   20   21 2    
    43   20   22 1    
    44   22   23 1    
    45   22   24 1    
    46   22   90 1    
    47   23   91 1    
    48   23   92 1    
    49   23   93 1    
    50   24   25 am   BACKBONE|DICT|INTERRES
    51   24   94 1    
    52   25   26 2    
    53   25   27 1    
    54   27   28 1    
    55   27   29 1    
    56   27   95 1    
    57   28   96 1    
    58   28   97 1    
    59   28   98 1    
    60   29   30 am   BACKBONE|DICT|INTERRES
    61   29   99 1    
    62   30   31 2    
    63   30   32 1    
    64   32   33 1    
    65   32   34 1    
    66   32  100 1    
    67   33  101 1    
    68   33  102 1    
    69   33  103 1    
    70   34   35 am   BACKBONE|DICT|INTERRES
    71   34  104 1    
    72   35   36 2    
    73   37   38 2    
    74   37   39 am   BACKBONE|DICT|INTERRES
    75   39   40 1    
    76   39  105 1    
    77   40   41 1    
    78   40   42 1    
    79   40  106 1    
    80   41  107 1    
    81   41  108 1    
    82   41  109 1    
    83   42   43 2    
    84   42   44 am   BACKBONE|DICT|INTERRES
    85   44   45 1    
    86   44  110 1    
    87   45   46 1    
    88   45   47 1    
    89   45  111 1    
    90   46  112 1    
    91   46  113 1    
    92   46  114 1    
    93   47   48 2    
    94   47   49 am   BACKBONE|DICT|INTERRES
    95   49   50 1    
    96   49  115 1    
    97   50   51 1    
    98   50   52 1    
    99   50  116 1    
   100   51  117 1    
   101   51  118 1    
   102   51  119 1    
   103   52   53 2    
   104   52   54 am   BACKBONE|DICT|INTERRES
   105   54   55 1    
   106   54  120 1    
   107   55   56 1    
   108   55   57 1    
   109   55  121 1    
   110   56  122 1    
   111   56  123 1    
   112   56  124 1    
   113   57   58 2    
   114   57   59 am   BACKBONE|DICT|INTERRES
   115   59   60 1    
   116   59  125 1    
   117   60   61 1    
   118   60   62 1    
   119   60  126 1    
   120   61  127 1    
   121   61  128 1    
   122   61  129 1    
   123   62   63 2    
   124   62   64 am   BACKBONE|DICT|INTERRES
   125   64   65 1    
   126   64  130 1    
   127   65   66 1    
   128   65   69 1    
   129   65  131 1    
   130   66   67 am   BACKBONE|DICT|INTERRES
   131   66   68 2    
   132   67  132 1    
   133   67  133 1    
   134   69   70 1    
   135   69  134 1    
   136   69  135 1    
   137   70   71 1    
   138   71  136 1    
   139   71  137 1    
@<TRIPOS>SUBSTRUCTURE
     1 UNK         1 GROUP             0       ****    0 ROOT    
