@<TRIPOS>MOLECULE
3R137
137   139    1
SMALL
USER_CHARGES


@<TRIPOS>ATOM
      1 CA         24.1072   -4.7652   -5.9974 C.3       0 UNK        -0.2020 
      2 C          24.3814   -4.4810   -4.5286 C.2       0 UNK         0.4855 
      3 O          23.6193   -3.7531   -3.8912 O.2       0 UNK        -0.5197 
      4 N          25.4735   -5.0372   -3.9897 N.am      1 UNK        -0.4892 
      5 CA         25.9728   -4.8220   -2.6264 C.3       1 UNK         0.0835 
      6 C6         27.1881   -5.7329   -2.2810 C.3       12 UNK        -0.0855 
      7 S7         28.3202   -6.1073   -3.6746 S.3       12 UNK        -0.2931 
      8 C8         29.9711   -5.7742   -2.9796 C.3       12 UNK         0.0378 
      9 C9         30.4913   -4.4050   -3.3901 C.ar      12 UNK        -0.0802 
     10 C10        30.9932   -4.2103   -4.6810 C.ar      12 UNK        -0.0944 
     11 C11        31.4775   -2.9601   -5.0741 C.ar      12 UNK        -0.0787 
     12 C12        31.4798   -1.9065   -4.1562 C.ar      12 UNK        -0.0862 
     13 C13        30.9757   -2.0834   -2.8644 C.ar      12 UNK        -0.0733 
     14 C14        30.4830   -3.3375   -2.4870 C.ar      12 UNK        -0.0832 
     15 C15        30.9649   -0.9288   -1.8707 C.3       12 UNK         0.0240 
     16 S16        29.2810   -0.2837   -1.6095 S.3       12 UNK        -0.2522 
     17 C17        29.2647    1.2580   -2.5897 C.3       12 UNK        -0.0967 
     18 CA         29.3926    1.0605   -4.1215 C.3       5 UNK         0.0660 
     19 N          28.4444    0.0765   -4.6428 N.am      5 UNK        -0.4015 
     20 C          28.5939   -0.5603   -5.8108 C.2       4 UNK         0.4946 
     21 O          29.5570   -0.3867   -6.5496 O.2       4 UNK        -0.5353 
     22 CA         27.4780   -1.5109   -6.2701 C.3       4 UNK         0.0277 
     23 CB         27.9305   -2.9787   -6.2277 C.3       4 UNK        -0.1981 
     24 N          26.2367   -1.3450   -5.5110 N.am      4 UNK        -0.4209 
     25 C          25.4164   -0.2935   -5.6490 C.2       3 UNK         0.4942 
     26 O          25.6205    0.6117   -6.4573 O.2       3 UNK        -0.5208 
     27 CA         24.1977   -0.2019   -4.7185 C.3       3 UNK         0.0250 
     28 CB         22.9494   -0.7724   -5.4085 C.3       3 UNK        -0.1990 
     29 N          24.4209   -0.8728   -3.4348 N.am      3 UNK        -0.4232 
     30 C          25.2171   -0.3785   -2.4727 C.2       2 UNK         0.4993 
     31 O          25.7745    0.7161   -2.5530 O.2       2 UNK        -0.5286 
     32 CA         25.4744   -1.2584   -1.2344 C.3       2 UNK         0.0209 
     33 CB         24.4674   -0.9282   -0.1212 C.3       2 UNK        -0.1931 
     34 N          25.4424   -2.6991   -1.5095 N.am      2 UNK        -0.4546 
     35 C          26.2529   -3.3274   -2.3734 C.2       1 UNK         0.5154 
     36 O          27.1348   -2.7555   -3.0105 O.2       1 UNK        -0.5181 
     37 C          29.3356    2.4196   -4.8544 C.2       5 UNK         0.5014 
     38 O          30.2550    3.2170   -4.6579 O.2       5 UNK        -0.5248 
     39 N          28.2886    2.6949   -5.6528 N.am      6 UNK        -0.4434 
     40 CA         28.1287    3.9883   -6.3293 C.3       6 UNK         0.0363 
     41 CB         27.5992    5.0427   -5.3360 C.3       6 UNK        -0.1936 
     42 C          27.2467    3.9681   -7.5871 C.2       6 UNK         0.5081 
     43 O          27.5022    4.7704   -8.4864 O.2       6 UNK        -0.5248 
     44 N          26.2022    3.1291   -7.6293 N.am      7 UNK        -0.4718 
     45 CA         25.1987    3.1480   -8.6980 C.3       7 UNK         0.0273 
     46 CB         23.7922    3.0066   -8.0879 C.3       7 UNK        -0.1935 
     47 C          25.4539    2.0562   -9.7437 C.2       7 UNK         0.5018 
     48 O          25.5266    2.3639  -10.9341 O.2       7 UNK        -0.5186 
     49 N          25.5624    0.8014   -9.2880 N.am      8 UNK        -0.4240 
     50 CA         25.6952   -0.3761  -10.1531 C.3       8 UNK         0.0235 
     51 CB         25.0348   -1.5878   -9.4707 C.3       8 UNK        -0.2000 
     52 C          27.1487   -0.6824  -10.5581 C.2       8 UNK         0.4941 
     53 O          27.3537   -1.4517  -11.4980 O.2       8 UNK        -0.5273 
     54 N          28.1218   -0.0847   -9.8623 N.am      9 UNK        -0.4262 
     55 CA         29.5616   -0.1944  -10.0901 C.3       9 UNK         0.0264 
     56 CB         30.0774   -1.6104   -9.7376 C.3       9 UNK        -0.1955 
     57 C          30.2388    0.9371   -9.2963 C.2       9 UNK         0.5031 
     58 O          29.6274    1.9960   -9.1311 O.2       9 UNK        -0.5390 
     59 N          31.4609    0.7022   -8.8029 N.am      10 UNK        -0.4204 
     60 CA         32.1680    1.6033   -7.8912 C.3       10 UNK         0.0237 
     61 CB         32.8674    2.7364   -8.6661 C.3       10 UNK        -0.1985 
     62 C          33.1576    0.8355   -7.0062 C.2       10 UNK         0.4970 
     63 O          33.1425    1.0230   -5.7901 O.2       10 UNK        -0.4914 
     64 N          33.9996   -0.0055   -7.6300 N.am      11 UNK        -0.4285 
     65 CA         35.0931   -0.7672   -6.9886 C.3       11 UNK         0.1007 
     66 C          36.2374    0.1189   -6.3992 C.2       11 UNK         0.5703 
     67 N          36.3731    1.3776   -6.8014 N.am      11 UNK        -0.7361 
     68 O          37.0422   -0.3450   -5.5944 O.2       11 UNK        -0.4986 
     69 C69        34.5916   -1.8532   -5.9879 C.3       12 UNK        -0.0947 
     70 S70        33.6650   -3.2002   -6.7975 S.3       12 UNK        -0.2240 
     71 C71        31.9331   -2.7309   -6.5085 C.3       12 UNK         0.0194 
     72 H72        24.7701   -5.5345   -6.3931 H         1 UNK         0.0906 
     73 H73        23.0799   -5.1040   -6.1290 H         1 UNK         0.0906 
     74 H74        24.2470   -3.8601   -6.5879 H         1 UNK         0.0906 
     75 H75        26.0871   -5.5989   -4.5647 H         1 UNK         0.3140 
     76 H76        25.1619   -5.1132   -1.9551 H         1 UNK         0.1085 
     77 H77        26.8111   -6.6950   -1.9305 H         1 UNK         0.0836 
     78 H78        27.7504   -5.3287   -1.4370 H         1 UNK         0.0836 
     79 H79        30.6591   -6.5373   -3.3464 H         1 UNK         0.0731 
     80 H80        29.9605   -5.8821   -1.8942 H         1 UNK         0.0731 
     81 H81        30.9853   -5.0288   -5.3878 H         1 UNK         0.1312 
     82 H82        31.8570   -0.9418   -4.4619 H         1 UNK         0.1406 
     83 H83        30.0835   -3.4761   -1.4918 H         1 UNK         0.1631 
     84 H84        31.6304   -0.1267   -2.1935 H         1 UNK         0.0717 
     85 H85        31.3555   -1.2795   -0.9145 H         1 UNK         0.0717 
     86 H86        28.3341    1.7792   -2.3562 H         1 UNK         0.0934 
     87 H87        30.0663    1.9009   -2.2204 H         1 UNK         0.0934 
     88 H88        30.3956    0.6826   -4.3132 H         1 UNK         0.0739 
     89 H89        27.6552   -0.1465   -4.0522 H         1 UNK         0.3093 
     90 H90        27.2808   -1.2598   -7.3119 H         1 UNK         0.0818 
     91 H91        28.2397   -3.2807   -5.2276 H         1 UNK         0.0819 
     92 H92        27.1397   -3.6528   -6.5555 H         1 UNK         0.0819 
     93 H93        28.7852   -3.1387   -6.8847 H         1 UNK         0.0819 
     94 H94        26.0835   -2.0015   -4.7551 H         1 UNK         0.3041 
     95 H95        24.0157    0.8574   -4.5238 H         1 UNK         0.0784 
     96 H96        22.7350   -0.2314   -6.3313 H         1 UNK         0.0793 
     97 H97        23.0714   -1.8226   -5.6713 H         1 UNK         0.0793 
     98 H98        22.0694   -0.6863   -4.7711 H         1 UNK         0.0793 
     99 H99        24.0209   -1.7999   -3.3238 H         1 UNK         0.3024 
    100 H100       26.4761   -1.0165   -0.8732 H         1 UNK         0.1171 
    101 H101       23.4461   -1.1762   -0.4132 H         1 UNK         0.0786 
    102 H102       24.4885    0.1357    0.1200 H         1 UNK         0.0786 
    103 H103       24.6972   -1.4702    0.7964 H         1 UNK         0.0786 
    104 H104       24.7113   -3.2274   -1.0546 H         1 UNK         0.2977 
    105 H105       27.5860    1.9869   -5.8130 H         1 UNK         0.3127 
    106 H106       29.1139    4.3115   -6.6746 H         1 UNK         0.0770 
    107 H107       26.6418    4.7436   -4.9079 H         1 UNK         0.0814 
    108 H108       27.4512    6.0058   -5.8268 H         1 UNK         0.0814 
    109 H109       28.2966    5.2081   -4.5150 H         1 UNK         0.0814 
    110 H110       26.0455    2.4486   -6.8940 H         1 UNK         0.2983 
    111 H111       25.2223    4.1074   -9.2202 H         1 UNK         0.0947 
    112 H112       23.0274    3.0247   -8.8656 H         1 UNK         0.0806 
    113 H113       23.5759    3.8278   -7.4045 H         1 UNK         0.0806 
    114 H114       23.6708    2.0746   -7.5357 H         1 UNK         0.0806 
    115 H115       25.5142    0.6465   -8.2830 H         1 UNK         0.3000 
    116 H116       25.1477   -0.1912  -11.0803 H         1 UNK         0.0850 
    117 H117       25.0939   -2.4725  -10.1061 H         1 UNK         0.0810 
    118 H118       23.9782   -1.4023   -9.2768 H         1 UNK         0.0810 
    119 H119       25.5051   -1.8400   -8.5226 H         1 UNK         0.0810 
    120 H120       27.8720    0.6052   -9.1647 H         1 UNK         0.3040 
    121 H121       29.7550   -0.0019  -11.1471 H         1 UNK         0.0766 
    122 H122       29.5633   -2.3787  -10.3143 H         1 UNK         0.0812 
    123 H123       29.9274   -1.8418   -8.6840 H         1 UNK         0.0812 
    124 H124       31.1390   -1.7217   -9.9593 H         1 UNK         0.0812 
    125 H125       31.8478   -0.2229   -8.9170 H         1 UNK         0.3205 
    126 H126       31.4341    2.0524   -7.2172 H         1 UNK         0.0754 
    127 H127       33.5688    2.3508   -9.4066 H         1 UNK         0.0769 
    128 H128       33.4241    3.3867   -7.9900 H         1 UNK         0.0769 
    129 H129       32.1433    3.3621   -9.1883 H         1 UNK         0.0769 
    130 H130       33.9851   -0.0529   -8.6378 H         1 UNK         0.2981 
    131 H131       35.5824   -1.2979   -7.8060 H         1 UNK         0.0541 
    132 H132       35.7387    1.7744   -7.4744 H         1 UNK         0.3459 
    133 H133       37.1230    1.9351   -6.4240 H         1 UNK         0.3459 
    134 H134       35.4357   -2.3381   -5.4955 H         1 UNK         0.0612 
    135 H135       34.0059   -1.4091   -5.1854 H         1 UNK         0.0612 
    136 H136       31.3040   -3.3135   -7.1824 H         1 UNK         0.0624 
    137 H137       31.7894   -1.6900   -6.7917 H         1 UNK         0.0624 
@<TRIPOS>BOND
     1    1    2 1    
     2    1   72 1    
     3    1   73 1    
     4    1   74 1    
     5    2    3 2    
     6    2    4 am   BACKBONE|DICT|INTERRES
     7    4    5 1    
     8    4   75 1    
     9    5    6 1    
    10    5   35 1    
    11    5   76 1    
    12    6    7 1    
    13    6   77 1    
    14    6   78 1    
    15    7    8 1    
    16    8    9 1    
    17    8   79 1    
    18    8   80 1    
    19    9   10 ar   
    20    9   14 ar   
    21   10   11 ar   
    22   10   81 1    
    23   11   12 ar   
    24   11   71 1    
    25   12   13 ar   
    26   12   82 1    
    27   13   14 ar   
    28   13   15 1    
    29   14   83 1    
    30   15   16 1    
    31   15   84 1    
    32   15   85 1    
    33   16   17 1    
    34   17   18 1    
    35   17   86 1    
    36   17   87 1    
    37   18   19 1    
    38   18   37 1    
    39   18   88 1    
    40   19   20 am   BACKBONE|DICT|INTERRES
    41   19   89 1    
    42   20   21 2    
    43   20   22 1    
    44   22   23 1    
    45   22   24 1    
    46   22   90 1    
    47   23   91 1    
    48   23   92 1    
    49   23   93 1    
    50   24   25 am   BACKBONE|DICT|INTERRES
    51   24   94 1    
    52   25   26 2    
    53   25   27 1    
    54   27   28 1    
    55   27   29 1    
    56   27   95 1    
    57   28   96 1    
    58   28   97 1    
    59   28   98 1    
    60   29   30 am   BACKBONE|DICT|INTERRES
    61   29   99 1    
    62   30   31 2    
    63   30   32 1    
    64   32   33 1    
    65   32   34 1    
    66   32  100 1    
    67   33  101 1    
    68   33  102 1    
    69   33  103 1    
    70   34   35 am   BACKBONE|DICT|INTERRES
    71   34  104 1    
    72   35   36 2    
    73   37   38 2    
    74   37   39 am   BACKBONE|DICT|INTERRES
    75   39   40 1    
    76   39  105 1    
    77   40   41 1    
    78   40   42 1    
    79   40  106 1    
    80   41  107 1    
    81   41  108 1    
    82   41  109 1    
    83   42   43 2    
    84   42   44 am   BACKBONE|DICT|INTERRES
    85   44   45 1    
    86   44  110 1    
    87   45   46 1    
    88   45   47 1    
    89   45  111 1    
    90   46  112 1    
    91   46  113 1    
    92   46  114 1    
    93   47   48 2    
    94   47   49 am   BACKBONE|DICT|INTERRES
    95   49   50 1    
    96   49  115 1    
    97   50   51 1    
    98   50   52 1    
    99   50  116 1    
   100   51  117 1    
   101   51  118 1    
   102   51  119 1    
   103   52   53 2    
   104   52   54 am   BACKBONE|DICT|INTERRES
   105   54   55 1    
   106   54  120 1    
   107   55   56 1    
   108   55   57 1    
   109   55  121 1    
   110   56  122 1    
   111   56  123 1    
   112   56  124 1    
   113   57   58 2    
   114   57   59 am   BACKBONE|DICT|INTERRES
   115   59   60 1    
   116   59  125 1    
   117   60   61 1    
   118   60   62 1    
   119   60  126 1    
   120   61  127 1    
   121   61  128 1    
   122   61  129 1    
   123   62   63 2    
   124   62   64 am   BACKBONE|DICT|INTERRES
   125   64   65 1    
   126   64  130 1    
   127   65   66 1    
   128   65   69 1    
   129   65  131 1    
   130   66   67 am   BACKBONE|DICT|INTERRES
   131   66   68 2    
   132   67  132 1    
   133   67  133 1    
   134   69   70 1    
   135   69  134 1    
   136   69  135 1    
   137   70   71 1    
   138   71  136 1    
   139   71  137 1    
@<TRIPOS>SUBSTRUCTURE
     1 UNK         1 GROUP             0       ****    0 ROOT    
