@<TRIPOS>MOLECULE
3R137
137   139    1
SMALL
USER_CHARGES


@<TRIPOS>ATOM
      1 CA         27.8167   -6.1345   -6.6384 C.3       0 UNK        -0.2020 
      2 C          27.8334   -5.5583   -5.2310 C.2       0 UNK         0.4855 
      3 O          26.9317   -5.8370   -4.4398 O.2       0 UNK        -0.5197 
      4 N          28.8571   -4.7604   -4.9105 N.am      1 UNK        -0.4892 
      5 CA         29.0408   -4.1176   -3.6075 C.3       1 UNK         0.0835 
      6 C6         30.5104   -3.6643   -3.4331 C.3       12 UNK        -0.0855 
      7 S7         31.1536   -3.8658   -1.7383 S.3       12 UNK        -0.2931 
      8 C8         30.9759   -2.2087   -0.9933 C.3       12 UNK         0.0378 
      9 C9         31.5059   -1.0650   -1.8524 C.ar      12 UNK        -0.0802 
     10 C10        32.7941   -1.1034   -2.4019 C.ar      12 UNK        -0.0944 
     11 C11        33.2687   -0.0341   -3.1694 C.ar      12 UNK        -0.0787 
     12 C12        32.4520    1.0813   -3.3747 C.ar      12 UNK        -0.0862 
     13 C13        31.1695    1.1352   -2.8243 C.ar      12 UNK        -0.0733 
     14 C14        30.7010    0.0582   -2.0683 C.ar      12 UNK        -0.0832 
     15 C15        30.3058    2.3710   -3.0264 C.3       12 UNK         0.0240 
     16 S16        29.6030    2.4373   -4.7004 S.3       12 UNK        -0.2522 
     17 C17        28.3280    1.1338   -4.6081 C.3       12 UNK        -0.0967 
     18 CA         27.4138    1.1159   -5.8587 C.3       5 UNK         0.0660 
     19 N          26.8282   -0.2110   -6.0930 N.am      5 UNK        -0.4015 
     20 C          26.1518   -0.5889   -7.1890 C.2       4 UNK         0.4946 
     21 O          25.9532    0.1487   -8.1539 O.2       4 UNK        -0.5353 
     22 CA         25.5220   -1.9900   -7.1844 C.3       4 UNK         0.0277 
     23 CB         26.4819   -3.0340   -7.7656 C.3       4 UNK        -0.1981 
     24 N          25.1065   -2.3997   -5.8420 N.am      4 UNK        -0.4209 
     25 C          23.9246   -2.0883   -5.2921 C.2       3 UNK         0.4942 
     26 O          23.0449   -1.4534   -5.8735 O.2       3 UNK        -0.5208 
     27 CA         23.6836   -2.5511   -3.8444 C.3       3 UNK         0.0250 
     28 CB         23.1315   -3.9856   -3.8231 C.3       3 UNK        -0.1990 
     29 N          24.8856   -2.4809   -3.0108 N.am      3 UNK        -0.4232 
     30 C          25.4964   -1.3429   -2.6519 C.2       2 UNK         0.4993 
     31 O          25.0863   -0.2198   -2.9457 O.2       2 UNK        -0.5286 
     32 CA         26.8146   -1.4793   -1.8686 C.3       2 UNK         0.0209 
     33 CB         26.5473   -1.4848   -0.3554 C.3       2 UNK        -0.1931 
     34 N          27.6283   -2.6506   -2.2254 N.am      2 UNK        -0.4546 
     35 C          28.0755   -2.9272   -3.4584 C.2       1 UNK         0.5154 
     36 O          27.7655   -2.2674   -4.4528 O.2       1 UNK        -0.5181 
     37 C          26.3766    2.2659   -5.8479 C.2       5 UNK         0.5014 
     38 O          26.7614    3.4248   -6.0036 O.2       5 UNK        -0.5248 
     39 N          25.0753    1.9482   -5.7722 N.am      6 UNK        -0.4434 
     40 CA         23.9724    2.8651   -6.0826 C.3       6 UNK         0.0363 
     41 CB         22.6379    2.1417   -5.8451 C.3       6 UNK        -0.1936 
     42 C          24.0269    3.4406   -7.5171 C.2       6 UNK         0.5081 
     43 O          23.5240    4.5422   -7.7379 O.2       6 UNK        -0.5248 
     44 N          24.6588    2.7125   -8.4504 N.am      7 UNK        -0.4718 
     45 CA         24.9605    3.1452   -9.8182 C.3       7 UNK         0.0273 
     46 CB         24.5043    2.0411  -10.7894 C.3       7 UNK        -0.1935 
     47 C          26.4584    3.4767  -10.0065 C.2       7 UNK         0.5018 
     48 O          26.8937    3.6146  -11.1508 O.2       7 UNK        -0.5186 
     49 N          27.1997    3.6151   -8.8945 N.am      8 UNK        -0.4240 
     50 CA         28.6436    3.8460   -8.7436 C.3       8 UNK         0.0235 
     51 CB         29.1168    5.0830   -9.5344 C.3       8 UNK        -0.2000 
     52 C          29.5084    2.6109   -9.0610 C.2       8 UNK         0.4941 
     53 O          29.1599    1.8009   -9.9221 O.2       8 UNK        -0.5273 
     54 N          30.6533    2.5259   -8.3656 N.am      9 UNK        -0.4262 
     55 CA         31.6858    1.4853   -8.4646 C.3       9 UNK         0.0264 
     56 CB         32.4149    1.5731   -9.8261 C.3       9 UNK        -0.1955 
     57 C          31.1475    0.0807   -8.1164 C.2       9 UNK         0.5031 
     58 O          30.3952   -0.0447   -7.1507 O.2       9 UNK        -0.5390 
     59 N          31.5610   -0.9436   -8.8809 N.am      10 UNK        -0.4204 
     60 CA         31.1962   -2.3609   -8.7363 C.3       10 UNK         0.0237 
     61 CB         29.7027   -2.5687   -9.0564 C.3       10 UNK        -0.1985 
     62 C          31.6117   -2.9565   -7.3752 C.2       10 UNK         0.4970 
     63 O          30.8251   -3.6597   -6.7363 O.2       10 UNK        -0.4914 
     64 N          32.8557   -2.6640   -6.9728 N.am      11 UNK        -0.4285 
     65 CA         33.4743   -3.0820   -5.7036 C.3       11 UNK         0.1007 
     66 C          33.6814   -4.6170   -5.5300 C.2       11 UNK         0.5703 
     67 N          33.5667   -5.4310   -6.5727 N.am      11 UNK        -0.7361 
     68 O          33.9531   -5.0768   -4.4242 O.2       11 UNK        -0.4986 
     69 C69        34.8064   -2.3322   -5.4412 C.3       12 UNK        -0.0947 
     70 S70        34.6591   -0.5145   -5.5193 S.3       12 UNK        -0.2240 
     71 C71        34.6713   -0.0532   -3.7578 C.3       12 UNK         0.0194 
     72 H72        26.8054   -6.1221   -7.0427 H         1 UNK         0.0906 
     73 H73        28.4610   -5.5697   -7.3125 H         1 UNK         0.0906 
     74 H74        28.1612   -7.1680   -6.6221 H         1 UNK         0.0906 
     75 H75        29.5344   -4.4905   -5.6220 H         1 UNK         0.3140 
     76 H76        28.7990   -4.8597   -2.8432 H         1 UNK         0.1085 
     77 H77        31.1541   -4.2996   -4.0418 H         1 UNK         0.0836 
     78 H78        30.6763   -2.6544   -3.8132 H         1 UNK         0.0836 
     79 H79        31.5084   -2.2004   -0.0414 H         1 UNK         0.0731 
     80 H80        29.9252   -2.0518   -0.7489 H         1 UNK         0.0731 
     81 H81        33.4244   -1.9658   -2.2323 H         1 UNK         0.1312 
     82 H82        32.8162    1.9123   -3.9635 H         1 UNK         0.1406 
     83 H83        29.7119    0.1035   -1.6346 H         1 UNK         0.1631 
     84 H84        30.9129    3.2633   -2.8667 H         1 UNK         0.0717 
     85 H85        29.5025    2.4149   -2.2893 H         1 UNK         0.0717 
     86 H86        28.8622    0.1857   -4.5241 H         1 UNK         0.0934 
     87 H87        27.7430    1.2433   -3.6934 H         1 UNK         0.0934 
     88 H88        28.0471    1.2960   -6.7296 H         1 UNK         0.0739 
     89 H89        27.0274   -0.9186   -5.3878 H         1 UNK         0.3093 
     90 H90        24.6440   -1.9544   -7.8335 H         1 UNK         0.0818 
     91 H91        26.0002   -4.0080   -7.8409 H         1 UNK         0.0819 
     92 H92        26.7947   -2.7537   -8.7720 H         1 UNK         0.0819 
     93 H93        27.3776   -3.1421   -7.1531 H         1 UNK         0.0819 
     94 H94        25.8022   -2.8660   -5.2735 H         1 UNK         0.3041 
     95 H95        22.9328   -1.8888   -3.4076 H         1 UNK         0.0784 
     96 H96        22.2258   -4.0639   -4.4264 H         1 UNK         0.0793 
     97 H97        23.8515   -4.7028   -4.2206 H         1 UNK         0.0793 
     98 H98        22.8720   -4.2960   -2.8108 H         1 UNK         0.0793 
     99 H99        25.3008   -3.3572   -2.7276 H         1 UNK         0.3024 
    100 H100       27.4069   -0.5936   -2.1030 H         1 UNK         0.1171 
    101 H101       27.4765   -1.4527    0.2139 H         1 UNK         0.0786 
    102 H102       25.9598   -0.6143   -0.0592 H         1 UNK         0.0786 
    103 H103       25.9931   -2.3719   -0.0461 H         1 UNK         0.0786 
    104 H104       27.9141   -3.2486   -1.4629 H         1 UNK         0.2977 
    105 H105       24.8293    0.9807   -5.6165 H         1 UNK         0.3127 
    106 H106       24.0383    3.7061   -5.3893 H         1 UNK         0.0770 
    107 H107       22.5224    1.2825   -6.5073 H         1 UNK         0.0814 
    108 H108       21.7943    2.8092   -6.0264 H         1 UNK         0.0814 
    109 H109       22.5548    1.7862   -4.8177 H         1 UNK         0.0814 
    110 H110       25.0479    1.8066   -8.1928 H         1 UNK         0.2983 
    111 H111       24.4058    4.0551  -10.0562 H         1 UNK         0.0947 
    112 H112       25.0684    1.1193  -10.6411 H         1 UNK         0.0806 
    113 H113       24.6432    2.3461  -11.8274 H         1 UNK         0.0806 
    114 H114       23.4465    1.8116  -10.6604 H         1 UNK         0.0806 
    115 H115       26.7170    3.5007   -8.0097 H         1 UNK         0.3000 
    116 H116       28.7794    4.0676   -7.6835 H         1 UNK         0.0850 
    117 H117       28.5025    5.9559   -9.3136 H         1 UNK         0.0810 
    118 H118       29.0891    4.9143  -10.6112 H         1 UNK         0.0810 
    119 H119       30.1458    5.3380   -9.2785 H         1 UNK         0.0810 
    120 H120       30.8210    3.2192   -7.6499 H         1 UNK         0.3040 
    121 H121       32.4168    1.7167   -7.6882 H         1 UNK         0.0766 
    122 H122       33.2982    0.9339   -9.8499 H         1 UNK         0.0812 
    123 H123       32.7606    2.5891  -10.0179 H         1 UNK         0.0812 
    124 H124       31.7679    1.2863  -10.6563 H         1 UNK         0.0812 
    125 H125       32.1816   -0.7277   -9.6486 H         1 UNK         0.3205 
    126 H126       31.7681   -2.9067   -9.4882 H         1 UNK         0.0754 
    127 H127       29.4276   -3.6230   -9.0084 H         1 UNK         0.0769 
    128 H128       29.4585   -2.2138  -10.0576 H         1 UNK         0.0769 
    129 H129       29.0727   -2.0286   -8.3504 H         1 UNK         0.0769 
    130 H130       33.4258   -2.0731   -7.5583 H         1 UNK         0.2981 
    131 H131       32.7842   -2.7816   -4.9158 H         1 UNK         0.0541 
    132 H132       33.7024   -6.4209   -6.4421 H         1 UNK         0.3459 
    133 H133       33.3403   -5.0679   -7.4839 H         1 UNK         0.3459 
    134 H134       35.2186   -2.6138   -4.4708 H         1 UNK         0.0612 
    135 H135       35.5535   -2.6310   -6.1786 H         1 UNK         0.0612 
    136 H136       35.1101    0.9416   -3.6675 H         1 UNK         0.0624 
    137 H137       35.3242   -0.7177   -3.1904 H         1 UNK         0.0624 
@<TRIPOS>BOND
     1    1    2 1    
     2    1   72 1    
     3    1   73 1    
     4    1   74 1    
     5    2    3 2    
     6    2    4 am   BACKBONE|DICT|INTERRES
     7    4    5 1    
     8    4   75 1    
     9    5    6 1    
    10    5   35 1    
    11    5   76 1    
    12    6    7 1    
    13    6   77 1    
    14    6   78 1    
    15    7    8 1    
    16    8    9 1    
    17    8   79 1    
    18    8   80 1    
    19    9   10 ar   
    20    9   14 ar   
    21   10   11 ar   
    22   10   81 1    
    23   11   12 ar   
    24   11   71 1    
    25   12   13 ar   
    26   12   82 1    
    27   13   14 ar   
    28   13   15 1    
    29   14   83 1    
    30   15   16 1    
    31   15   84 1    
    32   15   85 1    
    33   16   17 1    
    34   17   18 1    
    35   17   86 1    
    36   17   87 1    
    37   18   19 1    
    38   18   37 1    
    39   18   88 1    
    40   19   20 am   BACKBONE|DICT|INTERRES
    41   19   89 1    
    42   20   21 2    
    43   20   22 1    
    44   22   23 1    
    45   22   24 1    
    46   22   90 1    
    47   23   91 1    
    48   23   92 1    
    49   23   93 1    
    50   24   25 am   BACKBONE|DICT|INTERRES
    51   24   94 1    
    52   25   26 2    
    53   25   27 1    
    54   27   28 1    
    55   27   29 1    
    56   27   95 1    
    57   28   96 1    
    58   28   97 1    
    59   28   98 1    
    60   29   30 am   BACKBONE|DICT|INTERRES
    61   29   99 1    
    62   30   31 2    
    63   30   32 1    
    64   32   33 1    
    65   32   34 1    
    66   32  100 1    
    67   33  101 1    
    68   33  102 1    
    69   33  103 1    
    70   34   35 am   BACKBONE|DICT|INTERRES
    71   34  104 1    
    72   35   36 2    
    73   37   38 2    
    74   37   39 am   BACKBONE|DICT|INTERRES
    75   39   40 1    
    76   39  105 1    
    77   40   41 1    
    78   40   42 1    
    79   40  106 1    
    80   41  107 1    
    81   41  108 1    
    82   41  109 1    
    83   42   43 2    
    84   42   44 am   BACKBONE|DICT|INTERRES
    85   44   45 1    
    86   44  110 1    
    87   45   46 1    
    88   45   47 1    
    89   45  111 1    
    90   46  112 1    
    91   46  113 1    
    92   46  114 1    
    93   47   48 2    
    94   47   49 am   BACKBONE|DICT|INTERRES
    95   49   50 1    
    96   49  115 1    
    97   50   51 1    
    98   50   52 1    
    99   50  116 1    
   100   51  117 1    
   101   51  118 1    
   102   51  119 1    
   103   52   53 2    
   104   52   54 am   BACKBONE|DICT|INTERRES
   105   54   55 1    
   106   54  120 1    
   107   55   56 1    
   108   55   57 1    
   109   55  121 1    
   110   56  122 1    
   111   56  123 1    
   112   56  124 1    
   113   57   58 2    
   114   57   59 am   BACKBONE|DICT|INTERRES
   115   59   60 1    
   116   59  125 1    
   117   60   61 1    
   118   60   62 1    
   119   60  126 1    
   120   61  127 1    
   121   61  128 1    
   122   61  129 1    
   123   62   63 2    
   124   62   64 am   BACKBONE|DICT|INTERRES
   125   64   65 1    
   126   64  130 1    
   127   65   66 1    
   128   65   69 1    
   129   65  131 1    
   130   66   67 am   BACKBONE|DICT|INTERRES
   131   66   68 2    
   132   67  132 1    
   133   67  133 1    
   134   69   70 1    
   135   69  134 1    
   136   69  135 1    
   137   70   71 1    
   138   71  136 1    
   139   71  137 1    
@<TRIPOS>SUBSTRUCTURE
     1 UNK         1 GROUP             0       ****    0 ROOT    
