@<TRIPOS>MOLECULE
3R137
137   139    1
SMALL
USER_CHARGES


@<TRIPOS>ATOM
      1 CA         25.2732   -2.1929    0.5833 C.3       0 UNK        -0.2020 
      2 C          26.5686   -1.7997   -0.1089 C.2       0 UNK         0.4855 
      3 O          26.9469   -0.6281   -0.0758 O.2       0 UNK        -0.5197 
      4 N          27.2496   -2.7624   -0.7470 N.am      1 UNK        -0.4892 
      5 CA         28.5022   -2.5531   -1.4829 C.3       1 UNK         0.0835 
      6 C6         29.1189   -3.8903   -1.9620 C.3       12 UNK        -0.0855 
      7 S7         30.9269   -3.7652   -2.1701 S.3       12 UNK        -0.2931 
      8 C8         31.3013   -5.2327   -3.1837 C.3       12 UNK         0.0378 
      9 C9         30.9971   -5.0006   -4.6571 C.ar      12 UNK        -0.0802 
     10 C10        31.9585   -4.4238   -5.4935 C.ar      12 UNK        -0.0944 
     11 C11        31.6792   -4.1899   -6.8434 C.ar      12 UNK        -0.0787 
     12 C12        30.4268   -4.5404   -7.3566 C.ar      12 UNK        -0.0862 
     13 C13        29.4664   -5.1393   -6.5361 C.ar      12 UNK        -0.0733 
     14 C14        29.7609   -5.3750   -5.1903 C.ar      12 UNK        -0.0832 
     15 C15        28.1109   -5.5378   -7.1010 C.3       12 UNK         0.0240 
     16 S16        26.7575   -4.5809   -6.3513 S.3       12 UNK        -0.2522 
     17 C17        27.1914   -2.8880   -6.8740 C.3       12 UNK        -0.0967 
     18 CA         25.9667   -1.9427   -6.8145 C.3       5 UNK         0.0660 
     19 N          25.4369   -1.8335   -5.4549 N.am      5 UNK        -0.4015 
     20 C          24.1535   -1.6373   -5.1326 C.2       4 UNK         0.4946 
     21 O          23.2565   -1.4838   -5.9627 O.2       4 UNK        -0.5353 
     22 CA         23.8347   -1.5404   -3.6367 C.3       4 UNK         0.0277 
     23 CB         24.0629   -2.8874   -2.9289 C.3       4 UNK        -0.1981 
     24 N          24.6512   -0.4990   -3.0146 N.am      4 UNK        -0.4209 
     25 C          24.3403    0.8055   -3.0163 C.2       3 UNK         0.4942 
     26 O          23.2883    1.2586   -3.4679 O.2       3 UNK        -0.5208 
     27 CA         25.3698    1.7755   -2.4125 C.3       3 UNK         0.0250 
     28 CB         25.0260    2.0837   -0.9461 C.3       3 UNK        -0.1990 
     29 N          26.7409    1.2665   -2.5021 N.am      3 UNK        -0.4232 
     30 C          27.4792    1.3126   -3.6222 C.2       2 UNK         0.4993 
     31 O          27.1031    1.8440   -4.6660 O.2       2 UNK        -0.5286 
     32 CA         28.8747    0.6629   -3.5858 C.3       2 UNK         0.0209 
     33 CB         29.9341    1.7300   -3.2644 C.3       2 UNK        -0.1931 
     34 N          29.0066   -0.4412   -2.6299 N.am      2 UNK        -0.4546 
     35 C          28.2847   -1.5697   -2.6504 C.2       1 UNK         0.5154 
     36 O          27.4265   -1.8201   -3.4997 O.2       1 UNK        -0.5181 
     37 C          26.2695   -0.5406   -7.3775 C.2       5 UNK         0.5014 
     38 O          27.3763   -0.2903   -7.8592 O.2       5 UNK        -0.5248 
     39 N          25.2703    0.3511   -7.3263 N.am      6 UNK        -0.4434 
     40 CA         25.3503    1.7486   -7.7648 C.3       6 UNK         0.0363 
     41 CB         24.0786    2.4870   -7.3192 C.3       6 UNK        -0.1936 
     42 C          25.5814    1.9205   -9.2776 C.2       6 UNK         0.5081 
     43 O          26.0491    2.9778   -9.6988 O.2       6 UNK        -0.5248 
     44 N          25.2749    0.8794  -10.0655 N.am      7 UNK        -0.4718 
     45 CA         25.5970    0.7900  -11.4917 C.3       7 UNK         0.0273 
     46 CB         24.8258   -0.3861  -12.1122 C.3       7 UNK        -0.1935 
     47 C          27.1079    0.6461  -11.7584 C.2       7 UNK         0.5018 
     48 O          27.5694    1.0742  -12.8170 O.2       7 UNK        -0.5186 
     49 N          27.8440    0.0582  -10.8038 N.am      8 UNK        -0.4240 
     50 CA         29.3042   -0.0159  -10.8122 C.3       8 UNK         0.0235 
     51 CB         29.7684   -1.3431  -10.1827 C.3       8 UNK        -0.2000 
     52 C          29.8858    1.1940  -10.0675 C.2       8 UNK         0.4941 
     53 O          30.6754    1.9351  -10.6550 O.2       8 UNK        -0.5273 
     54 N          29.4410    1.3752   -8.8125 N.am      9 UNK        -0.4262 
     55 CA         29.8189    2.4025   -7.8337 C.3       9 UNK         0.0264 
     56 CB         29.4982    3.8153   -8.3634 C.3       9 UNK        -0.1955 
     57 C          31.2801    2.3029   -7.3520 C.2       9 UNK         0.5031 
     58 O          32.1188    1.6618   -7.9869 O.2       9 UNK        -0.5390 
     59 N          31.5530    2.9497   -6.2098 N.am      10 UNK        -0.4204 
     60 CA         32.8407    3.1042   -5.5108 C.3       10 UNK         0.0237 
     61 CB         33.8435    3.9004   -6.3690 C.3       10 UNK        -0.1985 
     62 C          33.4899    1.8110   -4.9760 C.2       10 UNK         0.4970 
     63 O          34.0033    1.8284   -3.8570 O.2       10 UNK        -0.4914 
     64 N          33.4789    0.7323   -5.7655 N.am      11 UNK        -0.4285 
     65 CA         34.0890   -0.5660   -5.4420 C.3       11 UNK         0.1007 
     66 C          33.4051   -1.3603   -4.2960 C.2       11 UNK         0.5703 
     67 N          32.1276   -1.1420   -4.0156 N.am      11 UNK        -0.7361 
     68 O          34.0517   -2.1829   -3.6522 O.2       11 UNK        -0.4986 
     69 C69        34.2931   -1.4382   -6.7085 C.3       12 UNK        -0.0947 
     70 S70        32.7618   -1.7674   -7.6563 S.3       12 UNK        -0.2240 
     71 C71        32.7334   -3.5850   -7.7586 C.3       12 UNK         0.0194 
     72 H72        25.3590   -2.0286    1.6570 H         1 UNK         0.0906 
     73 H73        24.4499   -1.5834    0.2115 H         1 UNK         0.0906 
     74 H74        25.0229   -3.2406    0.4184 H         1 UNK         0.0906 
     75 H75        26.8830   -3.7035   -0.7613 H         1 UNK         0.3140 
     76 H76        29.1922   -2.0967   -0.7692 H         1 UNK         0.1085 
     77 H77        28.9422   -4.6742   -1.2236 H         1 UNK         0.0836 
     78 H78        28.6463   -4.2337   -2.8832 H         1 UNK         0.0836 
     79 H79        30.7483   -6.0940   -2.8053 H         1 UNK         0.0731 
     80 H80        32.3583   -5.4762   -3.0654 H         1 UNK         0.0731 
     81 H81        32.9244   -4.1523   -5.0917 H         1 UNK         0.1312 
     82 H82        30.2049   -4.3560   -8.3989 H         1 UNK         0.1406 
     83 H83        29.0165   -5.8384   -4.5575 H         1 UNK         0.1631 
     84 H84        27.9416   -6.5985   -6.9109 H         1 UNK         0.0717 
     85 H85        28.0831   -5.4117   -8.1845 H         1 UNK         0.0717 
     86 H86        28.0008   -2.5193   -6.2398 H         1 UNK         0.0934 
     87 H87        27.5900   -2.9329   -7.8894 H         1 UNK         0.0934 
     88 H88        25.1961   -2.3709   -7.4594 H         1 UNK         0.0739 
     89 H89        26.1312   -1.9004   -4.7108 H         1 UNK         0.3093 
     90 H90        22.7780   -1.2835   -3.5334 H         1 UNK         0.0818 
     91 H91        23.7339   -2.8468   -1.8912 H         1 UNK         0.0819 
     92 H92        23.4937   -3.6817   -3.4137 H         1 UNK         0.0819 
     93 H93        25.1110   -3.1878   -2.9388 H         1 UNK         0.0819 
     94 H94        25.5661   -0.7739   -2.6837 H         1 UNK         0.3041 
     95 H95        25.3087    2.7108   -2.9738 H         1 UNK         0.0784 
     96 H96        24.0361    2.5351   -0.8668 H         1 UNK         0.0793 
     97 H97        25.0207    1.1838   -0.3308 H         1 UNK         0.0793 
     98 H98        25.7372    2.7852   -0.5098 H         1 UNK         0.0793 
     99 H99        27.1097    0.7974   -1.6814 H         1 UNK         0.3024 
    100 H100       29.0652    0.2629   -4.5846 H         1 UNK         0.1171 
    101 H101       30.9453    1.3343   -3.3468 H         1 UNK         0.0786 
    102 H102       29.8569    2.5760   -3.9471 H         1 UNK         0.0786 
    103 H103       29.8133    2.1231   -2.2541 H         1 UNK         0.0786 
    104 H104       29.6632   -0.3018   -1.8751 H         1 UNK         0.2977 
    105 H105       24.3912    0.0447   -6.9239 H         1 UNK         0.3127 
    106 H106       26.2049    2.2029   -7.2587 H         1 UNK         0.0770 
    107 H107       23.1835    2.0604   -7.7733 H         1 UNK         0.0814 
    108 H108       24.1191    3.5399   -7.6016 H         1 UNK         0.0814 
    109 H109       23.9587    2.4482   -6.2358 H         1 UNK         0.0814 
    110 H110       24.8623    0.0641   -9.6364 H         1 UNK         0.2983 
    111 H111       25.2654    1.7122  -11.9743 H         1 UNK         0.0947 
    112 H112       25.0258   -0.4613  -13.1821 H         1 UNK         0.0806 
    113 H113       23.7492   -0.2619  -11.9942 H         1 UNK         0.0806 
    114 H114       25.1070   -1.3386  -11.6610 H         1 UNK         0.0806 
    115 H115       27.3891   -0.2070   -9.9386 H         1 UNK         0.3000 
    116 H116       29.6708    0.0096  -11.8409 H         1 UNK         0.0850 
    117 H117       30.8567   -1.4153  -10.1949 H         1 UNK         0.0810 
    118 H118       29.3809   -2.1992  -10.7348 H         1 UNK         0.0810 
    119 H119       29.4514   -1.4449   -9.1445 H         1 UNK         0.0810 
    120 H120       28.7764    0.6894   -8.4565 H         1 UNK         0.3040 
    121 H121       29.1818    2.2160   -6.9670 H         1 UNK         0.0766 
    122 H122       30.1459    4.0945   -9.1949 H         1 UNK         0.0812 
    123 H123       29.6286    4.5696   -7.5870 H         1 UNK         0.0812 
    124 H124       28.4660    3.8839   -8.7067 H         1 UNK         0.0812 
    125 H125       30.7846    3.4355   -5.7692 H         1 UNK         0.3205 
    126 H126       32.6167    3.7128   -4.6330 H         1 UNK         0.0754 
    127 H127       33.4336    4.8667   -6.6631 H         1 UNK         0.0769 
    128 H128       34.1189    3.3634   -7.2774 H         1 UNK         0.0769 
    129 H129       34.7636    4.0938   -5.8158 H         1 UNK         0.0769 
    130 H130       33.0355    0.8161   -6.6790 H         1 UNK         0.2981 
    131 H131       35.0893   -0.3387   -5.0680 H         1 UNK         0.0541 
    132 H132       31.5895   -0.5014   -4.5722 H         1 UNK         0.3459 
    133 H133       31.6917   -1.7006   -3.2983 H         1 UNK         0.3459 
    134 H134       34.7872   -2.3741   -6.4439 H         1 UNK         0.0612 
    135 H135       34.9836   -0.9305   -7.3835 H         1 UNK         0.0612 
    136 H136       32.5269   -3.8616   -8.7936 H         1 UNK         0.0624 
    137 H137       33.7128   -4.0073   -7.5325 H         1 UNK         0.0624 
@<TRIPOS>BOND
     1    1    2 1    
     2    1   72 1    
     3    1   73 1    
     4    1   74 1    
     5    2    3 2    
     6    2    4 am   BACKBONE|DICT|INTERRES
     7    4    5 1    
     8    4   75 1    
     9    5    6 1    
    10    5   35 1    
    11    5   76 1    
    12    6    7 1    
    13    6   77 1    
    14    6   78 1    
    15    7    8 1    
    16    8    9 1    
    17    8   79 1    
    18    8   80 1    
    19    9   10 ar   
    20    9   14 ar   
    21   10   11 ar   
    22   10   81 1    
    23   11   12 ar   
    24   11   71 1    
    25   12   13 ar   
    26   12   82 1    
    27   13   14 ar   
    28   13   15 1    
    29   14   83 1    
    30   15   16 1    
    31   15   84 1    
    32   15   85 1    
    33   16   17 1    
    34   17   18 1    
    35   17   86 1    
    36   17   87 1    
    37   18   19 1    
    38   18   37 1    
    39   18   88 1    
    40   19   20 am   BACKBONE|DICT|INTERRES
    41   19   89 1    
    42   20   21 2    
    43   20   22 1    
    44   22   23 1    
    45   22   24 1    
    46   22   90 1    
    47   23   91 1    
    48   23   92 1    
    49   23   93 1    
    50   24   25 am   BACKBONE|DICT|INTERRES
    51   24   94 1    
    52   25   26 2    
    53   25   27 1    
    54   27   28 1    
    55   27   29 1    
    56   27   95 1    
    57   28   96 1    
    58   28   97 1    
    59   28   98 1    
    60   29   30 am   BACKBONE|DICT|INTERRES
    61   29   99 1    
    62   30   31 2    
    63   30   32 1    
    64   32   33 1    
    65   32   34 1    
    66   32  100 1    
    67   33  101 1    
    68   33  102 1    
    69   33  103 1    
    70   34   35 am   BACKBONE|DICT|INTERRES
    71   34  104 1    
    72   35   36 2    
    73   37   38 2    
    74   37   39 am   BACKBONE|DICT|INTERRES
    75   39   40 1    
    76   39  105 1    
    77   40   41 1    
    78   40   42 1    
    79   40  106 1    
    80   41  107 1    
    81   41  108 1    
    82   41  109 1    
    83   42   43 2    
    84   42   44 am   BACKBONE|DICT|INTERRES
    85   44   45 1    
    86   44  110 1    
    87   45   46 1    
    88   45   47 1    
    89   45  111 1    
    90   46  112 1    
    91   46  113 1    
    92   46  114 1    
    93   47   48 2    
    94   47   49 am   BACKBONE|DICT|INTERRES
    95   49   50 1    
    96   49  115 1    
    97   50   51 1    
    98   50   52 1    
    99   50  116 1    
   100   51  117 1    
   101   51  118 1    
   102   51  119 1    
   103   52   53 2    
   104   52   54 am   BACKBONE|DICT|INTERRES
   105   54   55 1    
   106   54  120 1    
   107   55   56 1    
   108   55   57 1    
   109   55  121 1    
   110   56  122 1    
   111   56  123 1    
   112   56  124 1    
   113   57   58 2    
   114   57   59 am   BACKBONE|DICT|INTERRES
   115   59   60 1    
   116   59  125 1    
   117   60   61 1    
   118   60   62 1    
   119   60  126 1    
   120   61  127 1    
   121   61  128 1    
   122   61  129 1    
   123   62   63 2    
   124   62   64 am   BACKBONE|DICT|INTERRES
   125   64   65 1    
   126   64  130 1    
   127   65   66 1    
   128   65   69 1    
   129   65  131 1    
   130   66   67 am   BACKBONE|DICT|INTERRES
   131   66   68 2    
   132   67  132 1    
   133   67  133 1    
   134   69   70 1    
   135   69  134 1    
   136   69  135 1    
   137   70   71 1    
   138   71  136 1    
   139   71  137 1    
@<TRIPOS>SUBSTRUCTURE
     1 UNK         1 GROUP             0       ****    0 ROOT    
