@<TRIPOS>MOLECULE
3R137
137   139    1
SMALL
USER_CHARGES


@<TRIPOS>ATOM
      1 CA         24.4345   -6.7185   -3.4844 C.3       0 UNK        -0.2020 
      2 C          25.5088   -5.6670   -3.2551 C.2       0 UNK         0.4855 
      3 O          25.8208   -4.9069   -4.1716 O.2       0 UNK        -0.5197 
      4 N          26.0623   -5.6052   -2.0346 N.am      1 UNK        -0.4892 
      5 CA         27.1243   -4.6790   -1.6120 C.3       1 UNK         0.0835 
      6 C6         28.4840   -5.0128   -2.2839 C.3       12 UNK        -0.0855 
      7 S7         29.9214   -4.5193   -1.2736 S.3       12 UNK        -0.2931 
      8 C8         31.0660   -3.8364   -2.5292 C.3       12 UNK         0.0378 
      9 C9         31.1515   -2.3089   -2.6155 C.ar      12 UNK        -0.0802 
     10 C10        31.8940   -1.7520   -3.6626 C.ar      12 UNK        -0.0944 
     11 C11        32.0623   -0.3648   -3.7786 C.ar      12 UNK        -0.0787 
     12 C12        31.4931    0.4645   -2.8090 C.ar      12 UNK        -0.0862 
     13 C13        30.7406   -0.0677   -1.7590 C.ar      12 UNK        -0.0733 
     14 C14        30.5687   -1.4528   -1.6711 C.ar      12 UNK        -0.0832 
     15 C15        30.1319    0.8515   -0.7047 C.3       12 UNK         0.0240 
     16 S16        28.9878    2.0856   -1.4095 S.3       12 UNK        -0.2522 
     17 C17        27.7778    1.0163   -2.2525 C.3       12 UNK        -0.0967 
     18 CA         27.9800    1.0163   -3.7911 C.3       5 UNK         0.0660 
     19 N          27.6930   -0.2930   -4.3826 N.am      5 UNK        -0.4015 
     20 C          27.8995   -0.6223   -5.6660 C.2       4 UNK         0.4946 
     21 O          28.4178    0.1245   -6.4950 O.2       4 UNK        -0.5353 
     22 CA         27.3942   -2.0029   -6.1165 C.3       4 UNK         0.0277 
     23 CB         28.4157   -3.0916   -5.7637 C.3       4 UNK        -0.1981 
     24 N          26.0903   -2.3285   -5.5325 N.am      4 UNK        -0.4209 
     25 C          24.9627   -1.6513   -5.7970 C.2       3 UNK         0.4942 
     26 O          24.8902   -0.7394   -6.6203 O.2       3 UNK        -0.5208 
     27 CA         23.7234   -2.0041   -4.9602 C.3       3 UNK         0.0250 
     28 CB         23.0170   -3.2542   -5.5088 C.3       3 UNK        -0.1990 
     29 N          24.0504   -2.1846   -3.5435 N.am      3 UNK        -0.4232 
     30 C          24.4590   -1.1951   -2.7352 C.2       2 UNK         0.4993 
     31 O          24.5590   -0.0214   -3.0898 O.2       2 UNK        -0.5286 
     32 CA         24.8606   -1.5773   -1.3008 C.3       2 UNK         0.0209 
     33 CB         23.6388   -1.5344   -0.3698 C.3       2 UNK        -0.1931 
     34 N          25.5044   -2.8908   -1.2061 N.am      2 UNK        -0.4546 
     35 C          26.6787   -3.2070   -1.7725 C.2       1 UNK         0.5154 
     36 O          27.3405   -2.4112   -2.4407 O.2       1 UNK        -0.5181 
     37 C          27.1869    2.1539   -4.4680 C.2       5 UNK         0.5014 
     38 O          27.7659    3.1955   -4.7792 O.2       5 UNK        -0.5248 
     39 N          25.8860    1.9249   -4.7030 N.am      6 UNK        -0.4434 
     40 CA         24.9922    2.8379   -5.4179 C.3       6 UNK         0.0363 
     41 CB         23.5388    2.3602   -5.2699 C.3       6 UNK        -0.1936 
     42 C          25.3628    3.0053   -6.9017 C.2       6 UNK         0.5081 
     43 O          25.2772    4.1207   -7.4167 O.2       6 UNK        -0.5248 
     44 N          25.7722    1.9101   -7.5598 N.am      7 UNK        -0.4718 
     45 CA         26.2704    1.9119   -8.9388 C.3       7 UNK         0.0273 
     46 CB         26.3912    0.4688   -9.4543 C.3       7 UNK        -0.1935 
     47 C          27.6095    2.6549   -9.0799 C.2       7 UNK         0.5018 
     48 O          27.7778    3.4137  -10.0356 O.2       7 UNK        -0.5186 
     49 N          28.5239    2.4275   -8.1250 N.am      8 UNK        -0.4240 
     50 CA         29.8405    3.0482   -7.9188 C.3       8 UNK         0.0235 
     51 CB         29.7102    4.5642   -7.6774 C.3       8 UNK        -0.2000 
     52 C          30.8918    2.7507   -9.0035 C.2       8 UNK         0.4941 
     53 O          32.0527    2.5233   -8.6611 O.2       8 UNK        -0.5273 
     54 N          30.4899    2.7592  -10.2798 N.am      9 UNK        -0.4262 
     55 CA         31.3150    2.4002  -11.4318 C.3       9 UNK         0.0264 
     56 CB         30.5725    2.7730  -12.7252 C.3       9 UNK        -0.1955 
     57 C          31.6494    0.9016  -11.4025 C.2       9 UNK         0.5031 
     58 O          30.7290    0.0799  -11.3714 O.2       9 UNK        -0.5390 
     59 N          32.9507    0.5809  -11.3855 N.am      10 UNK        -0.4204 
     60 CA         33.5703   -0.7494  -11.2711 C.3       10 UNK         0.0237 
     61 CB         33.1890   -1.6634  -12.4532 C.3       10 UNK        -0.1985 
     62 C          33.3261   -1.4479   -9.9189 C.2       10 UNK         0.4970 
     63 O          34.2913   -1.9060   -9.3084 O.2       10 UNK        -0.4914 
     64 N          32.0570   -1.5103   -9.4964 N.am      11 UNK        -0.4285 
     65 CA         31.5269   -2.0337   -8.2257 C.3       11 UNK         0.1007 
     66 C          31.9178   -3.4968   -7.8456 C.2       11 UNK         0.5703 
     67 N          32.3226   -4.3339   -8.7932 N.am      11 UNK        -0.7361 
     68 O          31.8098   -3.8992   -6.6899 O.2       11 UNK        -0.4986 
     69 C69        31.6164   -1.0000   -7.0652 C.3       12 UNK        -0.0947 
     70 S70        33.2717   -0.7649   -6.3365 S.3       12 UNK        -0.2240 
     71 C71        32.8685    0.2924   -4.9038 C.3       12 UNK         0.0194 
     72 H72        24.7285   -7.3801   -4.2987 H         1 UNK         0.0906 
     73 H73        24.2621   -7.3279   -2.5976 H         1 UNK         0.0906 
     74 H74        23.4940   -6.2408   -3.7572 H         1 UNK         0.0906 
     75 H75        25.7496   -6.2533   -1.3238 H         1 UNK         0.3140 
     76 H76        27.2386   -4.8388   -0.5382 H         1 UNK         0.1085 
     77 H77        28.5400   -4.5940   -3.2862 H         1 UNK         0.0836 
     78 H78        28.5692   -6.0916   -2.4228 H         1 UNK         0.0836 
     79 H79        30.8209   -4.2436   -3.5115 H         1 UNK         0.0731 
     80 H80        32.0643   -4.2084   -2.2952 H         1 UNK         0.0731 
     81 H81        32.3483   -2.4161   -4.3842 H         1 UNK         0.1312 
     82 H82        31.6275    1.5358   -2.8742 H         1 UNK         0.1406 
     83 H83        29.9916   -1.8568   -0.8522 H         1 UNK         0.1631 
     84 H84        30.9358    1.3742   -0.1849 H         1 UNK         0.0717 
     85 H85        29.6004    0.2755    0.0545 H         1 UNK         0.0717 
     86 H86        27.8874    0.0105   -1.8486 H         1 UNK         0.0934 
     87 H87        26.7691    1.3261   -1.9715 H         1 UNK         0.0934 
     88 H88        29.0345    1.1980   -4.0075 H         1 UNK         0.0739 
     89 H89        27.3431   -1.0104   -3.7525 H         1 UNK         0.3093 
     90 H90        27.2716   -1.9870   -7.2013 H         1 UNK         0.0818 
     91 H91        29.2766   -3.0332   -6.4256 H         1 UNK         0.0819 
     92 H92        28.7891   -2.9745   -4.7470 H         1 UNK         0.0819 
     93 H93        27.9982   -4.0936   -5.8643 H         1 UNK         0.0819 
     94 H94        26.0570   -3.1042   -4.8749 H         1 UNK         0.3041 
     95 H95        23.0266   -1.1663   -5.0354 H         1 UNK         0.0784 
     96 H96        22.7184   -3.1039   -6.5472 H         1 UNK         0.0793 
     97 H97        23.6601   -4.1336   -5.4827 H         1 UNK         0.0793 
     98 H98        22.1135   -3.4808   -4.9426 H         1 UNK         0.0793 
     99 H99        24.0361   -3.1275   -3.1841 H         1 UNK         0.3024 
    100 H100       25.5785   -0.8300   -0.9561 H         1 UNK         0.1171 
    101 H101       23.9236   -1.7111    0.6676 H         1 UNK         0.0786 
    102 H102       23.1541   -0.5576   -0.4083 H         1 UNK         0.0786 
    103 H103       22.8917   -2.2798   -0.6458 H         1 UNK         0.0786 
    104 H104       25.0083   -3.6074   -0.6954 H         1 UNK         0.2977 
    105 H105       25.4665    1.0729   -4.3363 H         1 UNK         0.3127 
    106 H106       25.0760    3.8186   -4.9449 H         1 UNK         0.0770 
    107 H107       23.3922    1.3718   -5.7062 H         1 UNK         0.0814 
    108 H108       22.8508    3.0434   -5.7695 H         1 UNK         0.0814 
    109 H109       23.2430    2.3094   -4.2219 H         1 UNK         0.0814 
    110 H110       25.7374    1.0132   -7.0835 H         1 UNK         0.2983 
    111 H111       25.5371    2.4332   -9.5579 H         1 UNK         0.0947 
    112 H112       26.7249    0.4526  -10.4927 H         1 UNK         0.0806 
    113 H113       25.4326   -0.0487   -9.4120 H         1 UNK         0.0806 
    114 H114       27.1088   -0.1107   -8.8734 H         1 UNK         0.0806 
    115 H115       28.3040    1.6980   -7.4472 H         1 UNK         0.3000 
    116 H116       30.2178    2.6032   -6.9962 H         1 UNK         0.0850 
    117 H117       30.6766    5.0024   -7.4252 H         1 UNK         0.0810 
    118 H118       29.0326    4.7735   -6.8493 H         1 UNK         0.0810 
    119 H119       29.3357    5.0874   -8.5577 H         1 UNK         0.0810 
    120 H120       29.5086    2.9648  -10.4533 H         1 UNK         0.3040 
    121 H121       32.2381    2.9817  -11.3841 H         1 UNK         0.0766 
    122 H122       30.3620    3.8418  -12.7680 H         1 UNK         0.0812 
    123 H123       29.6238    2.2414  -12.8132 H         1 UNK         0.0812 
    124 H124       31.1693    2.5238  -13.6036 H         1 UNK         0.0812 
    125 H125       33.6091    1.3483  -11.3707 H         1 UNK         0.3205 
    126 H126       34.6454   -0.5731  -11.3367 H         1 UNK         0.0754 
    127 H127       33.7332   -2.6075  -12.4047 H         1 UNK         0.0769 
    128 H128       33.4344   -1.1977  -13.4077 H         1 UNK         0.0769 
    129 H129       32.1256   -1.9042  -12.4630 H         1 UNK         0.0769 
    130 H130       31.3665   -1.0868  -10.1130 H         1 UNK         0.2981 
    131 H131       30.4603   -2.1236   -8.4339 H         1 UNK         0.0541 
    132 H132       32.4178   -4.0206   -9.7454 H         1 UNK         0.3459 
    133 H133       32.5602   -5.2808   -8.5443 H         1 UNK         0.3459 
    134 H134       31.2573   -0.0291   -7.4095 H         1 UNK         0.0612 
    135 H135       30.9321   -1.2909   -6.2684 H         1 UNK         0.0612 
    136 H136       33.8051    0.6594   -4.4825 H         1 UNK         0.0624 
    137 H137       32.3308    1.1680   -5.2717 H         1 UNK         0.0624 
@<TRIPOS>BOND
     1    1    2 1    
     2    1   72 1    
     3    1   73 1    
     4    1   74 1    
     5    2    3 2    
     6    2    4 am   BACKBONE|DICT|INTERRES
     7    4    5 1    
     8    4   75 1    
     9    5    6 1    
    10    5   35 1    
    11    5   76 1    
    12    6    7 1    
    13    6   77 1    
    14    6   78 1    
    15    7    8 1    
    16    8    9 1    
    17    8   79 1    
    18    8   80 1    
    19    9   10 ar   
    20    9   14 ar   
    21   10   11 ar   
    22   10   81 1    
    23   11   12 ar   
    24   11   71 1    
    25   12   13 ar   
    26   12   82 1    
    27   13   14 ar   
    28   13   15 1    
    29   14   83 1    
    30   15   16 1    
    31   15   84 1    
    32   15   85 1    
    33   16   17 1    
    34   17   18 1    
    35   17   86 1    
    36   17   87 1    
    37   18   19 1    
    38   18   37 1    
    39   18   88 1    
    40   19   20 am   BACKBONE|DICT|INTERRES
    41   19   89 1    
    42   20   21 2    
    43   20   22 1    
    44   22   23 1    
    45   22   24 1    
    46   22   90 1    
    47   23   91 1    
    48   23   92 1    
    49   23   93 1    
    50   24   25 am   BACKBONE|DICT|INTERRES
    51   24   94 1    
    52   25   26 2    
    53   25   27 1    
    54   27   28 1    
    55   27   29 1    
    56   27   95 1    
    57   28   96 1    
    58   28   97 1    
    59   28   98 1    
    60   29   30 am   BACKBONE|DICT|INTERRES
    61   29   99 1    
    62   30   31 2    
    63   30   32 1    
    64   32   33 1    
    65   32   34 1    
    66   32  100 1    
    67   33  101 1    
    68   33  102 1    
    69   33  103 1    
    70   34   35 am   BACKBONE|DICT|INTERRES
    71   34  104 1    
    72   35   36 2    
    73   37   38 2    
    74   37   39 am   BACKBONE|DICT|INTERRES
    75   39   40 1    
    76   39  105 1    
    77   40   41 1    
    78   40   42 1    
    79   40  106 1    
    80   41  107 1    
    81   41  108 1    
    82   41  109 1    
    83   42   43 2    
    84   42   44 am   BACKBONE|DICT|INTERRES
    85   44   45 1    
    86   44  110 1    
    87   45   46 1    
    88   45   47 1    
    89   45  111 1    
    90   46  112 1    
    91   46  113 1    
    92   46  114 1    
    93   47   48 2    
    94   47   49 am   BACKBONE|DICT|INTERRES
    95   49   50 1    
    96   49  115 1    
    97   50   51 1    
    98   50   52 1    
    99   50  116 1    
   100   51  117 1    
   101   51  118 1    
   102   51  119 1    
   103   52   53 2    
   104   52   54 am   BACKBONE|DICT|INTERRES
   105   54   55 1    
   106   54  120 1    
   107   55   56 1    
   108   55   57 1    
   109   55  121 1    
   110   56  122 1    
   111   56  123 1    
   112   56  124 1    
   113   57   58 2    
   114   57   59 am   BACKBONE|DICT|INTERRES
   115   59   60 1    
   116   59  125 1    
   117   60   61 1    
   118   60   62 1    
   119   60  126 1    
   120   61  127 1    
   121   61  128 1    
   122   61  129 1    
   123   62   63 2    
   124   62   64 am   BACKBONE|DICT|INTERRES
   125   64   65 1    
   126   64  130 1    
   127   65   66 1    
   128   65   69 1    
   129   65  131 1    
   130   66   67 am   BACKBONE|DICT|INTERRES
   131   66   68 2    
   132   67  132 1    
   133   67  133 1    
   134   69   70 1    
   135   69  134 1    
   136   69  135 1    
   137   70   71 1    
   138   71  136 1    
   139   71  137 1    
@<TRIPOS>SUBSTRUCTURE
     1 UNK         1 GROUP             0       ****    0 ROOT    
