@<TRIPOS>MOLECULE
3R137
137   139    1
SMALL
USER_CHARGES


@<TRIPOS>ATOM
      1 CA         26.8678   -5.8881   -0.2256 C.3       0 UNK        -0.2020 
      2 C          26.5565   -4.4065   -0.3686 C.2       0 UNK         0.4855 
      3 O          26.0891   -3.9885   -1.4255 O.2       0 UNK        -0.5197 
      4 N          26.7899   -3.6264    0.6981 N.am      1 UNK        -0.4892 
      5 CA         26.6654   -2.1599    0.8151 C.3       1 UNK         0.0835 
      6 C6         27.9293   -1.3897    0.3360 C.3       12 UNK        -0.0855 
      7 S7         28.2653   -1.4395   -1.4590 S.3       12 UNK        -0.2931 
      8 C8         29.7688   -2.4588   -1.5127 C.3       12 UNK         0.0378 
      9 C9         30.3624   -2.4822   -2.9126 C.ar      12 UNK        -0.0802 
     10 C10        31.3392   -1.5495   -3.2770 C.ar      12 UNK        -0.0944 
     11 C11        31.8974   -1.5718   -4.5584 C.ar      12 UNK        -0.0787 
     12 C12        31.4643   -2.5305   -5.4794 C.ar      12 UNK        -0.0862 
     13 C13        30.4967   -3.4736   -5.1248 C.ar      12 UNK        -0.0733 
     14 C14        29.9457   -3.4430   -3.8392 C.ar      12 UNK        -0.0832 
     15 C15        30.0679   -4.5381   -6.1260 C.3       12 UNK         0.0240 
     16 S16        29.2166   -3.8339   -7.5738 S.3       12 UNK        -0.2522 
     17 C17        27.7218   -3.1346   -6.8025 C.3       12 UNK        -0.0967 
     18 CA         27.3084   -1.7634   -7.3881 C.3       5 UNK         0.0660 
     19 N          25.9189   -1.4721   -7.0211 N.am      5 UNK        -0.4015 
     20 C          25.2082   -0.3679   -7.2877 C.2       4 UNK         0.4946 
     21 O          25.6477    0.5835   -7.9321 O.2       4 UNK        -0.5353 
     22 CA         23.7712   -0.2993   -6.7340 C.3       4 UNK         0.0277 
     23 CB         22.7554   -0.3038   -7.8881 C.3       4 UNK        -0.1981 
     24 N          23.4393   -1.3789   -5.7937 N.am      4 UNK        -0.4209 
     25 C          23.9493   -1.5109   -4.5608 C.2       3 UNK         0.4942 
     26 O          24.7484   -0.7157   -4.0619 O.2       3 UNK        -0.5208 
     27 CA         23.5697   -2.8021   -3.8185 C.3       3 UNK         0.0250 
     28 CB         24.4969   -3.9512   -4.2516 C.3       3 UNK        -0.1990 
     29 N          23.6420   -2.6509   -2.3641 N.am      3 UNK        -0.4232 
     30 C          22.7342   -1.9889   -1.6312 C.2       2 UNK         0.4993 
     31 O          21.7449   -1.4376   -2.1173 O.2       2 UNK        -0.5286 
     32 CA         22.9133   -1.9598   -0.1010 C.3       2 UNK         0.0209 
     33 CB         21.8835   -2.8804    0.5763 C.3       2 UNK        -0.1931 
     34 N          24.2530   -2.3496    0.3425 N.am      2 UNK        -0.4546 
     35 C          25.3239   -1.5447    0.3391 C.2       1 UNK         0.5154 
     36 O          25.2652   -0.3548    0.0229 O.2       1 UNK        -0.5181 
     37 C          28.2984   -0.6332   -7.0157 C.2       5 UNK         0.5014 
     38 O          29.1956   -0.3283   -7.8054 O.2       5 UNK        -0.5248 
     39 N          28.0665    0.0313   -5.8739 N.am      6 UNK        -0.4434 
     40 CA         28.8186    1.2041   -5.4154 C.3       6 UNK         0.0363 
     41 CB         28.3907    1.5444   -3.9803 C.3       6 UNK        -0.1936 
     42 C          28.6977    2.4497   -6.3190 C.2       6 UNK         0.5081 
     43 O          29.5175    3.3571   -6.1805 O.2       6 UNK        -0.5248 
     44 N          27.7038    2.4838   -7.2160 N.am      7 UNK        -0.4718 
     45 CA         27.5401    3.5118   -8.2443 C.3       7 UNK         0.0273 
     46 CB         26.1323    4.1206   -8.1345 C.3       7 UNK        -0.1935 
     47 C          27.7663    2.9310   -9.6489 C.2       7 UNK         0.5018 
     48 O          28.3877    3.5960  -10.4777 O.2       7 UNK        -0.5186 
     49 N          27.2496    1.7190   -9.9010 N.am      8 UNK        -0.4240 
     50 CA         27.2926    1.0454  -11.2008 C.3       8 UNK         0.0235 
     51 CB         26.3009   -0.1295  -11.2073 C.3       8 UNK        -0.2000 
     52 C          28.6998    0.5780  -11.6061 C.2       8 UNK         0.4941 
     53 O          29.0845    0.7780  -12.7591 O.2       8 UNK        -0.5273 
     54 N          29.4365   -0.0283  -10.6656 N.am      9 UNK        -0.4262 
     55 CA         30.8322   -0.4351  -10.8471 C.3       9 UNK         0.0264 
     56 CB         31.0590   -1.8299  -10.2391 C.3       9 UNK        -0.1955 
     57 C          31.7659    0.5972  -10.2049 C.2       9 UNK         0.5031 
     58 O          32.7548    0.9889  -10.8253 O.2       9 UNK        -0.5390 
     59 N          31.4296    1.0181   -8.9758 N.am      10 UNK        -0.4204 
     60 CA         32.0666    2.0784   -8.1825 C.3       10 UNK         0.0237 
     61 CB         31.8901    3.4499   -8.8670 C.3       10 UNK        -0.1985 
     62 C          33.5282    1.8266   -7.7616 C.2       10 UNK         0.4970 
     63 O          34.1380    2.7268   -7.1826 O.2       10 UNK        -0.4914 
     64 N          34.0512    0.6156   -8.0048 N.am      11 UNK        -0.4285 
     65 CA         35.3938    0.1564   -7.6060 C.3       11 UNK         0.1007 
     66 C          36.5691    0.9495   -8.2598 C.2       11 UNK         0.5703 
     67 N          36.3615    1.6046   -9.3965 N.am      11 UNK        -0.7361 
     68 O          37.6913    0.9455   -7.7583 O.2       11 UNK        -0.4986 
     69 C69        35.5236   -0.0028   -6.0602 C.3       12 UNK        -0.0947 
     70 S70        34.5165   -1.3851   -5.4263 S.3       12 UNK        -0.2240 
     71 C71        32.9607   -0.5602   -4.9583 C.3       12 UNK         0.0194 
     72 H72        27.6090   -6.1858   -0.9669 H         1 UNK         0.0906 
     73 H73        25.9665   -6.4780   -0.3900 H         1 UNK         0.0906 
     74 H74        27.2588   -6.1323    0.7619 H         1 UNK         0.0906 
     75 H75        27.1370   -4.0738    1.5359 H         1 UNK         0.3140 
     76 H76        26.6271   -1.9951    1.8934 H         1 UNK         0.1085 
     77 H77        27.8579   -0.3400    0.6266 H         1 UNK         0.0836 
     78 H78        28.8002   -1.7673    0.8734 H         1 UNK         0.0836 
     79 H79        30.5026   -2.0669   -0.8066 H         1 UNK         0.0731 
     80 H80        29.5315   -3.4717   -1.1837 H         1 UNK         0.0731 
     81 H81        31.6633   -0.8067   -2.5608 H         1 UNK         0.1312 
     82 H82        31.8896   -2.5498   -6.4737 H         1 UNK         0.1406 
     83 H83        29.1924   -4.1657   -3.5551 H         1 UNK         0.1631 
     84 H84        30.9510   -5.0796   -6.4678 H         1 UNK         0.0717 
     85 H85        29.4181   -5.2782   -5.6564 H         1 UNK         0.0717 
     86 H86        26.9277   -3.8655   -6.9649 H         1 UNK         0.0934 
     87 H87        27.8388   -3.0661   -5.7199 H         1 UNK         0.0934 
     88 H88        27.3214   -1.8461   -8.4757 H         1 UNK         0.0739 
     89 H89        25.4505   -2.1877   -6.4880 H         1 UNK         0.3093 
     90 H90        23.6816    0.6507   -6.2028 H         1 UNK         0.0818 
     91 H91        21.7368   -0.1734   -7.5219 H         1 UNK         0.0819 
     92 H92        22.9519    0.5123   -8.5854 H         1 UNK         0.0819 
     93 H93        22.7930   -1.2333   -8.4576 H         1 UNK         0.0819 
     94 H94        22.7944   -2.0814   -6.1290 H         1 UNK         0.3041 
     95 H95        22.5434   -3.0682   -4.0811 H         1 UNK         0.0784 
     96 H96        24.3930   -4.1662   -5.3156 H         1 UNK         0.0793 
     97 H97        25.5456   -3.7142   -4.0650 H         1 UNK         0.0793 
     98 H98        24.2652   -4.8712   -3.7143 H         1 UNK         0.0793 
     99 H99        24.4651   -3.0398   -1.9097 H         1 UNK         0.3024 
    100 H100       22.7197   -0.9347    0.2236 H         1 UNK         0.1171 
    101 H101       21.9496   -2.8189    1.6628 H         1 UNK         0.0786 
    102 H102       20.8661   -2.5996    0.3000 H         1 UNK         0.0786 
    103 H103       22.0229   -3.9232    0.2885 H         1 UNK         0.0786 
    104 H104       24.3884   -3.3152    0.6058 H         1 UNK         0.2977 
    105 H105       27.2944   -0.2633   -5.2917 H         1 UNK         0.3127 
    106 H106       29.8750    0.9274   -5.3975 H         1 UNK         0.0770 
    107 H107       27.3212    1.7476   -3.9132 H         1 UNK         0.0814 
    108 H108       28.9165    2.4255   -3.6097 H         1 UNK         0.0814 
    109 H109       28.6233    0.7271   -3.3003 H         1 UNK         0.0814 
    110 H110       27.0586    1.7010   -7.2628 H         1 UNK         0.2983 
    111 H111       28.2673    4.3149   -8.1047 H         1 UNK         0.0947 
    112 H112       25.9783    4.8879   -8.8943 H         1 UNK         0.0806 
    113 H113       25.9818    4.5916   -7.1631 H         1 UNK         0.0806 
    114 H114       25.3526    3.3689   -8.2653 H         1 UNK         0.0806 
    115 H115       26.6985    1.2662   -9.1732 H         1 UNK         0.3000 
    116 H116       26.9598    1.7646  -11.9526 H         1 UNK         0.0850 
    117 H117       25.2863    0.2074  -10.9933 H         1 UNK         0.0810 
    118 H118       26.5626   -0.8867  -10.4691 H         1 UNK         0.0810 
    119 H119       26.2816   -0.6179  -12.1825 H         1 UNK         0.0810 
    120 H120       29.0606   -0.1235   -9.7272 H         1 UNK         0.3040 
    121 H121       31.0748   -0.4931  -11.9104 H         1 UNK         0.0766 
    122 H122       30.3886   -2.5675  -10.6803 H         1 UNK         0.0812 
    123 H123       30.9002   -1.8412   -9.1607 H         1 UNK         0.0812 
    124 H124       32.0792   -2.1708  -10.4196 H         1 UNK         0.0812 
    125 H125       30.6254    0.5727   -8.5344 H         1 UNK         0.3205 
    126 H126       31.5140    2.1057   -7.2450 H         1 UNK         0.0754 
    127 H127       32.4533    3.5146   -9.7984 H         1 UNK         0.0769 
    128 H128       32.2319    4.2599   -8.2216 H         1 UNK         0.0769 
    129 H129       30.8421    3.6448   -9.0933 H         1 UNK         0.0769 
    130 H130       33.4924   -0.0504   -8.5157 H         1 UNK         0.2981 
    131 H131       35.4949   -0.8398   -8.0379 H         1 UNK         0.0541 
    132 H132       37.1231    2.1068   -9.8246 H         1 UNK         0.3459 
    133 H133       35.4491    1.6024   -9.8267 H         1 UNK         0.3459 
    134 H134       35.2674    0.9193   -5.5370 H         1 UNK         0.0612 
    135 H135       36.5531   -0.2292   -5.7790 H         1 UNK         0.0612 
    136 H136       32.5751    0.0204   -5.7938 H         1 UNK         0.0624 
    137 H137       33.1591    0.1447   -4.1495 H         1 UNK         0.0624 
@<TRIPOS>BOND
     1    1    2 1    
     2    1   72 1    
     3    1   73 1    
     4    1   74 1    
     5    2    3 2    
     6    2    4 am   BACKBONE|DICT|INTERRES
     7    4    5 1    
     8    4   75 1    
     9    5    6 1    
    10    5   35 1    
    11    5   76 1    
    12    6    7 1    
    13    6   77 1    
    14    6   78 1    
    15    7    8 1    
    16    8    9 1    
    17    8   79 1    
    18    8   80 1    
    19    9   10 ar   
    20    9   14 ar   
    21   10   11 ar   
    22   10   81 1    
    23   11   12 ar   
    24   11   71 1    
    25   12   13 ar   
    26   12   82 1    
    27   13   14 ar   
    28   13   15 1    
    29   14   83 1    
    30   15   16 1    
    31   15   84 1    
    32   15   85 1    
    33   16   17 1    
    34   17   18 1    
    35   17   86 1    
    36   17   87 1    
    37   18   19 1    
    38   18   37 1    
    39   18   88 1    
    40   19   20 am   BACKBONE|DICT|INTERRES
    41   19   89 1    
    42   20   21 2    
    43   20   22 1    
    44   22   23 1    
    45   22   24 1    
    46   22   90 1    
    47   23   91 1    
    48   23   92 1    
    49   23   93 1    
    50   24   25 am   BACKBONE|DICT|INTERRES
    51   24   94 1    
    52   25   26 2    
    53   25   27 1    
    54   27   28 1    
    55   27   29 1    
    56   27   95 1    
    57   28   96 1    
    58   28   97 1    
    59   28   98 1    
    60   29   30 am   BACKBONE|DICT|INTERRES
    61   29   99 1    
    62   30   31 2    
    63   30   32 1    
    64   32   33 1    
    65   32   34 1    
    66   32  100 1    
    67   33  101 1    
    68   33  102 1    
    69   33  103 1    
    70   34   35 am   BACKBONE|DICT|INTERRES
    71   34  104 1    
    72   35   36 2    
    73   37   38 2    
    74   37   39 am   BACKBONE|DICT|INTERRES
    75   39   40 1    
    76   39  105 1    
    77   40   41 1    
    78   40   42 1    
    79   40  106 1    
    80   41  107 1    
    81   41  108 1    
    82   41  109 1    
    83   42   43 2    
    84   42   44 am   BACKBONE|DICT|INTERRES
    85   44   45 1    
    86   44  110 1    
    87   45   46 1    
    88   45   47 1    
    89   45  111 1    
    90   46  112 1    
    91   46  113 1    
    92   46  114 1    
    93   47   48 2    
    94   47   49 am   BACKBONE|DICT|INTERRES
    95   49   50 1    
    96   49  115 1    
    97   50   51 1    
    98   50   52 1    
    99   50  116 1    
   100   51  117 1    
   101   51  118 1    
   102   51  119 1    
   103   52   53 2    
   104   52   54 am   BACKBONE|DICT|INTERRES
   105   54   55 1    
   106   54  120 1    
   107   55   56 1    
   108   55   57 1    
   109   55  121 1    
   110   56  122 1    
   111   56  123 1    
   112   56  124 1    
   113   57   58 2    
   114   57   59 am   BACKBONE|DICT|INTERRES
   115   59   60 1    
   116   59  125 1    
   117   60   61 1    
   118   60   62 1    
   119   60  126 1    
   120   61  127 1    
   121   61  128 1    
   122   61  129 1    
   123   62   63 2    
   124   62   64 am   BACKBONE|DICT|INTERRES
   125   64   65 1    
   126   64  130 1    
   127   65   66 1    
   128   65   69 1    
   129   65  131 1    
   130   66   67 am   BACKBONE|DICT|INTERRES
   131   66   68 2    
   132   67  132 1    
   133   67  133 1    
   134   69   70 1    
   135   69  134 1    
   136   69  135 1    
   137   70   71 1    
   138   71  136 1    
   139   71  137 1    
@<TRIPOS>SUBSTRUCTURE
     1 UNK         1 GROUP             0       ****    0 ROOT    
