@<TRIPOS>MOLECULE
3R137
137   139    1
SMALL
USER_CHARGES


@<TRIPOS>ATOM
      1 CA         26.5441   -4.8226    2.3002 C.3       0 UNK        -0.2020 
      2 C          26.7340   -3.9359    1.0791 C.2       0 UNK         0.4855 
      3 O          26.9891   -4.4469   -0.0123 O.2       0 UNK        -0.5197 
      4 N          26.6108   -2.6116    1.2538 N.am      1 UNK        -0.4892 
      5 CA         26.7181   -1.5645    0.2259 C.3       1 UNK         0.0835 
      6 C6         28.0659   -1.6089   -0.5562 C.3       12 UNK        -0.0855 
      7 S7         28.7979    0.0323   -0.8826 S.3       12 UNK        -0.2931 
      8 C8         30.5914   -0.3375   -0.9458 C.3       12 UNK         0.0378 
      9 C9         30.9986   -0.9757   -2.2697 C.ar      12 UNK        -0.0802 
     10 C10        31.6297   -0.2232   -3.2690 C.ar      12 UNK        -0.0944 
     11 C11        31.9188   -0.7970   -4.5141 C.ar      12 UNK        -0.0787 
     12 C12        31.5618   -2.1252   -4.7587 C.ar      12 UNK        -0.0862 
     13 C13        30.9171   -2.8753   -3.7751 C.ar      12 UNK        -0.0733 
     14 C14        30.6934   -2.3161   -2.5154 C.ar      12 UNK        -0.0832 
     15 C15        30.3364   -4.2398   -4.1089 C.3       12 UNK         0.0240 
     16 S16        28.8833   -4.1159   -5.2180 S.3       12 UNK        -0.2522 
     17 C17        28.0149   -2.5978   -4.6706 C.3       12 UNK        -0.0967 
     18 CA         28.1318   -1.4680   -5.7300 C.3       5 UNK         0.0660 
     19 N          27.0344   -1.5429   -6.6873 N.am      5 UNK        -0.4015 
     20 C          26.9109   -0.8619   -7.8292 C.2       4 UNK         0.4946 
     21 O          27.8042   -0.1634   -8.3120 O.2       4 UNK        -0.5353 
     22 CA         25.5405   -0.9378   -8.5317 C.3       4 UNK         0.0277 
     23 CB         25.4798   -2.1378   -9.4964 C.3       4 UNK        -0.1981 
     24 N          24.3927   -0.9027   -7.6010 N.am      4 UNK        -0.4209 
     25 C          24.0163   -1.8302   -6.7062 C.2       3 UNK         0.4942 
     26 O          24.5372   -2.9443   -6.6143 O.2       3 UNK        -0.5208 
     27 CA         22.9101   -1.4234   -5.7130 C.3       3 UNK         0.0250 
     28 CB         21.5243   -1.7561   -6.2885 C.3       3 UNK        -0.1990 
     29 N          23.0593   -2.0806   -4.4067 N.am      3 UNK        -0.4232 
     30 C          24.1296   -1.9731   -3.6042 C.2       2 UNK         0.4993 
     31 O          25.0845   -1.2334   -3.8467 O.2       2 UNK        -0.5286 
     32 CA         24.1445   -2.8766   -2.3556 C.3       2 UNK         0.0209 
     33 CB         24.1814   -4.3615   -2.7613 C.3       2 UNK        -0.1931 
     34 N          25.2835   -2.6277   -1.4652 N.am      2 UNK        -0.4546 
     35 C          25.4648   -1.5561   -0.6822 C.2       1 UNK         0.5154 
     36 O          24.6561   -0.6308   -0.5965 O.2       1 UNK        -0.5181 
     37 C          28.2327   -0.0484   -5.1325 C.2       5 UNK         0.5014 
     38 O          29.1964    0.6596   -5.4240 O.2       5 UNK        -0.5248 
     39 N          27.2073    0.3900   -4.3887 N.am      6 UNK        -0.4434 
     40 CA         27.1315    1.7235   -3.7735 C.3       6 UNK         0.0363 
     41 CB         25.9205    1.7884   -2.8326 C.3       6 UNK        -0.1936 
     42 C          27.0856    2.8904   -4.7755 C.2       6 UNK         0.5081 
     43 O          27.4499    4.0099   -4.4152 O.2       6 UNK        -0.5248 
     44 N          26.6660    2.6119   -6.0169 N.am      7 UNK        -0.4718 
     45 CA         26.7134    3.5509   -7.1411 C.3       7 UNK         0.0273 
     46 CB         25.7426    3.0714   -8.2326 C.3       7 UNK        -0.1935 
     47 C          28.1298    3.7281   -7.7252 C.2       7 UNK         0.5018 
     48 O          28.3133    4.6018   -8.5732 O.2       7 UNK        -0.5186 
     49 N          29.0864    2.8888   -7.2947 N.am      8 UNK        -0.4240 
     50 CA         30.4774    2.7942   -7.7494 C.3       8 UNK         0.0235 
     51 CB         31.2518    4.1038   -7.4913 C.3       8 UNK        -0.2000 
     52 C          30.6248    2.2869   -9.1962 C.2       8 UNK         0.4941 
     53 O          31.6977    2.4399   -9.7804 O.2       8 UNK        -0.5273 
     54 N          29.5726    1.6599   -9.7422 N.am      9 UNK        -0.4262 
     55 CA         29.5675    1.0558  -11.0740 C.3       9 UNK         0.0264 
     56 CB         28.1212    0.8820  -11.5662 C.3       9 UNK        -0.1955 
     57 C          30.3175   -0.2823  -11.0755 C.2       9 UNK         0.5031 
     58 O          31.0920   -0.5397  -11.9977 O.2       9 UNK        -0.5390 
     59 N          30.1226   -1.0862  -10.0182 N.am      10 UNK        -0.4204 
     60 CA         30.8185   -2.3636   -9.8145 C.3       10 UNK         0.0237 
     61 CB         30.1826   -3.1158   -8.6371 C.3       10 UNK        -0.1985 
     62 C          32.3367   -2.2101   -9.5945 C.2       10 UNK         0.4970 
     63 O          33.0846   -3.1364   -9.9084 O.2       10 UNK        -0.4914 
     64 N          32.7588   -1.0466   -9.0826 N.am      11 UNK        -0.4285 
     65 CA         34.1664   -0.6392   -8.9548 C.3       11 UNK         0.1007 
     66 C          34.7649   -0.0386  -10.2632 C.2       11 UNK         0.5703 
     67 N          34.0220    0.0862  -11.3581 N.am      11 UNK        -0.7361 
     68 O          35.9449    0.3030  -10.2945 O.2       11 UNK        -0.4986 
     69 C69        34.3791    0.2996   -7.7343 C.3       12 UNK        -0.0947 
     70 S70        34.1481   -0.5711   -6.1471 S.3       12 UNK        -0.2240 
     71 C71        32.5106    0.0338   -5.6427 C.3       12 UNK         0.0194 
     72 H72        27.4449   -5.4084    2.4811 H         1 UNK         0.0906 
     73 H73        25.7165   -5.5124    2.1368 H         1 UNK         0.0906 
     74 H74        26.3307   -4.2429    3.1980 H         1 UNK         0.0906 
     75 H75        26.3757   -2.2683    2.1758 H         1 UNK         0.3140 
     76 H76        26.6912   -0.6281    0.7862 H         1 UNK         0.1085 
     77 H77        27.9652   -2.1539   -1.4935 H         1 UNK         0.0836 
     78 H78        28.8003   -2.1670    0.0261 H         1 UNK         0.0836 
     79 H79        31.1403    0.5939   -0.7989 H         1 UNK         0.0731 
     80 H80        30.8712   -0.9854   -0.1139 H         1 UNK         0.0731 
     81 H81        31.8573    0.8191   -3.0933 H         1 UNK         0.1312 
     82 H82        31.7311   -2.5551   -5.7359 H         1 UNK         0.1406 
     83 H83        30.1973   -2.9018   -1.7552 H         1 UNK         0.1631 
     84 H84        30.0384   -4.7644   -3.1997 H         1 UNK         0.0717 
     85 H85        31.0987   -4.8583   -4.5846 H         1 UNK         0.0717 
     86 H86        26.9729   -2.8632   -4.4910 H         1 UNK         0.0934 
     87 H87        28.3805   -2.2764   -3.7002 H         1 UNK         0.0934 
     88 H88        29.0581   -1.6042   -6.2854 H         1 UNK         0.0739 
     89 H89        26.2434   -2.1213   -6.4177 H         1 UNK         0.3093 
     90 H90        25.4527   -0.0387   -9.1418 H         1 UNK         0.0818 
     91 H91        26.2650   -2.0674  -10.2504 H         1 UNK         0.0819 
     92 H92        25.6157   -3.0895   -8.9823 H         1 UNK         0.0819 
     93 H93        24.5267   -2.1745  -10.0237 H         1 UNK         0.0819 
     94 H94        23.8881   -0.0265   -7.5927 H         1 UNK         0.3041 
     95 H95        22.9738   -0.3461   -5.5456 H         1 UNK         0.0784 
     96 H96        21.3662   -1.2581   -7.2462 H         1 UNK         0.0793 
     97 H97        21.4045   -2.8276   -6.4557 H         1 UNK         0.0793 
     98 H98        20.7270   -1.4287   -5.6208 H         1 UNK         0.0793 
     99 H99        22.3325   -2.7335   -4.1535 H         1 UNK         0.3024 
    100 H100       23.2284   -2.6814   -1.7938 H         1 UNK         0.1171 
    101 H101       25.0665   -4.5916   -3.3566 H         1 UNK         0.0786 
    102 H102       24.1902   -5.0117   -1.8860 H         1 UNK         0.0786 
    103 H103       23.3096   -4.6391   -3.3547 H         1 UNK         0.0786 
    104 H104       25.9704   -3.3700   -1.3839 H         1 UNK         0.2977 
    105 H105       26.4239   -0.2411   -4.1998 H         1 UNK         0.3127 
    106 H106       28.0350    1.8590   -3.1757 H         1 UNK         0.0770 
    107 H107       25.8221    2.7763   -2.3808 H         1 UNK         0.0814 
    108 H108       24.9883    1.5690   -3.3543 H         1 UNK         0.0814 
    109 H109       26.0270    1.0750   -2.0181 H         1 UNK         0.0814 
    110 H110       26.3913    1.6626   -6.2195 H         1 UNK         0.2983 
    111 H111       26.3800    4.5303   -6.7907 H         1 UNK         0.0947 
    112 H112       26.0812    2.1424   -8.6892 H         1 UNK         0.0806 
    113 H113       25.6626    3.8101   -9.0313 H         1 UNK         0.0806 
    114 H114       24.7388    2.9144   -7.8378 H         1 UNK         0.0806 
    115 H115       28.8333    2.1919   -6.5985 H         1 UNK         0.3000 
    116 H116       30.9303    2.0277   -7.1227 H         1 UNK         0.0850 
    117 H117       32.3195    3.9670   -7.6672 H         1 UNK         0.0810 
    118 H118       31.1352    4.4366   -6.4599 H         1 UNK         0.0810 
    119 H119       30.9180    4.9095   -8.1455 H         1 UNK         0.0810 
    120 H120       28.7616    1.4806   -9.1604 H         1 UNK         0.3040 
    121 H121       30.0801    1.7308  -11.7631 H         1 UNK         0.0766 
    122 H122       27.5529    0.1957  -10.9385 H         1 UNK         0.0812 
    123 H123       28.1032    0.4828  -12.5811 H         1 UNK         0.0812 
    124 H124       27.5922    1.8350  -11.5838 H         1 UNK         0.0812 
    125 H125       29.4415   -0.8031   -9.3189 H         1 UNK         0.3205 
    126 H126       30.6757   -2.9617  -10.7170 H         1 UNK         0.0754 
    127 H127       29.0999   -3.1929   -8.7399 H         1 UNK         0.0769 
    128 H128       30.4014   -2.6246   -7.6915 H         1 UNK         0.0769 
    129 H129       30.5751   -4.1312   -8.5675 H         1 UNK         0.0769 
    130 H130       32.0751   -0.3316   -8.8918 H         1 UNK         0.2981 
    131 H131       34.7590   -1.5374   -8.7712 H         1 UNK         0.0541 
    132 H132       34.4424    0.4729  -12.1877 H         1 UNK         0.3459 
    133 H133       33.0492   -0.1935  -11.3765 H         1 UNK         0.3459 
    134 H134       33.7199    1.1679   -7.7910 H         1 UNK         0.0612 
    135 H135       35.3963    0.6949   -7.7222 H         1 UNK         0.0612 
    136 H136       32.5839    1.0852   -5.3611 H         1 UNK         0.0624 
    137 H137       31.8322   -0.0193   -6.4944 H         1 UNK         0.0624 
@<TRIPOS>BOND
     1    1    2 1    
     2    1   72 1    
     3    1   73 1    
     4    1   74 1    
     5    2    3 2    
     6    2    4 am   BACKBONE|DICT|INTERRES
     7    4    5 1    
     8    4   75 1    
     9    5    6 1    
    10    5   35 1    
    11    5   76 1    
    12    6    7 1    
    13    6   77 1    
    14    6   78 1    
    15    7    8 1    
    16    8    9 1    
    17    8   79 1    
    18    8   80 1    
    19    9   10 ar   
    20    9   14 ar   
    21   10   11 ar   
    22   10   81 1    
    23   11   12 ar   
    24   11   71 1    
    25   12   13 ar   
    26   12   82 1    
    27   13   14 ar   
    28   13   15 1    
    29   14   83 1    
    30   15   16 1    
    31   15   84 1    
    32   15   85 1    
    33   16   17 1    
    34   17   18 1    
    35   17   86 1    
    36   17   87 1    
    37   18   19 1    
    38   18   37 1    
    39   18   88 1    
    40   19   20 am   BACKBONE|DICT|INTERRES
    41   19   89 1    
    42   20   21 2    
    43   20   22 1    
    44   22   23 1    
    45   22   24 1    
    46   22   90 1    
    47   23   91 1    
    48   23   92 1    
    49   23   93 1    
    50   24   25 am   BACKBONE|DICT|INTERRES
    51   24   94 1    
    52   25   26 2    
    53   25   27 1    
    54   27   28 1    
    55   27   29 1    
    56   27   95 1    
    57   28   96 1    
    58   28   97 1    
    59   28   98 1    
    60   29   30 am   BACKBONE|DICT|INTERRES
    61   29   99 1    
    62   30   31 2    
    63   30   32 1    
    64   32   33 1    
    65   32   34 1    
    66   32  100 1    
    67   33  101 1    
    68   33  102 1    
    69   33  103 1    
    70   34   35 am   BACKBONE|DICT|INTERRES
    71   34  104 1    
    72   35   36 2    
    73   37   38 2    
    74   37   39 am   BACKBONE|DICT|INTERRES
    75   39   40 1    
    76   39  105 1    
    77   40   41 1    
    78   40   42 1    
    79   40  106 1    
    80   41  107 1    
    81   41  108 1    
    82   41  109 1    
    83   42   43 2    
    84   42   44 am   BACKBONE|DICT|INTERRES
    85   44   45 1    
    86   44  110 1    
    87   45   46 1    
    88   45   47 1    
    89   45  111 1    
    90   46  112 1    
    91   46  113 1    
    92   46  114 1    
    93   47   48 2    
    94   47   49 am   BACKBONE|DICT|INTERRES
    95   49   50 1    
    96   49  115 1    
    97   50   51 1    
    98   50   52 1    
    99   50  116 1    
   100   51  117 1    
   101   51  118 1    
   102   51  119 1    
   103   52   53 2    
   104   52   54 am   BACKBONE|DICT|INTERRES
   105   54   55 1    
   106   54  120 1    
   107   55   56 1    
   108   55   57 1    
   109   55  121 1    
   110   56  122 1    
   111   56  123 1    
   112   56  124 1    
   113   57   58 2    
   114   57   59 am   BACKBONE|DICT|INTERRES
   115   59   60 1    
   116   59  125 1    
   117   60   61 1    
   118   60   62 1    
   119   60  126 1    
   120   61  127 1    
   121   61  128 1    
   122   61  129 1    
   123   62   63 2    
   124   62   64 am   BACKBONE|DICT|INTERRES
   125   64   65 1    
   126   64  130 1    
   127   65   66 1    
   128   65   69 1    
   129   65  131 1    
   130   66   67 am   BACKBONE|DICT|INTERRES
   131   66   68 2    
   132   67  132 1    
   133   67  133 1    
   134   69   70 1    
   135   69  134 1    
   136   69  135 1    
   137   70   71 1    
   138   71  136 1    
   139   71  137 1    
@<TRIPOS>SUBSTRUCTURE
     1 UNK         1 GROUP             0       ****    0 ROOT    
