@<TRIPOS>MOLECULE
3R137
137   139    1
SMALL
USER_CHARGES


@<TRIPOS>ATOM
      1 CA         25.1010   -5.8654   -1.1310 C.3       0 UNK        -0.2020 
      2 C          25.8007   -4.6062   -0.6435 C.2       0 UNK         0.4855 
      3 O          25.1390   -3.6873   -0.1587 O.2       0 UNK        -0.5197 
      4 N          27.1334   -4.5535   -0.7778 N.am      1 UNK        -0.4892 
      5 CA         27.9900   -3.4116   -0.4338 C.3       1 UNK         0.0835 
      6 C6         29.4807   -3.7664   -0.6605 C.3       12 UNK        -0.0855 
      7 S7         30.6400   -2.4661   -0.1058 S.3       12 UNK        -0.2931 
      8 C8         31.9736   -2.5820   -1.3476 C.3       12 UNK         0.0378 
      9 C9         31.4868   -2.2847   -2.7604 C.ar      12 UNK        -0.0802 
     10 C10        31.4107   -3.3087   -3.7098 C.ar      12 UNK        -0.0944 
     11 C11        30.9300   -3.0513   -4.9969 C.ar      12 UNK        -0.0787 
     12 C12        30.5340   -1.7547   -5.3347 C.ar      12 UNK        -0.0862 
     13 C13        30.6174   -0.7188   -4.3991 C.ar      12 UNK        -0.0733 
     14 C14        31.1001   -0.9894   -3.1152 C.ar      12 UNK        -0.0832 
     15 C15        30.1701    0.6894   -4.7576 C.3       12 UNK         0.0240 
     16 S16        28.4802    0.9947   -4.1687 S.3       12 UNK        -0.2522 
     17 C17        27.5804    1.2647   -5.7281 C.3       12 UNK        -0.0967 
     18 CA         27.3781   -0.0168   -6.5741 C.3       5 UNK         0.0660 
     19 N          26.7476   -1.1047   -5.8192 N.am      5 UNK        -0.4015 
     20 C          26.6401   -2.3736   -6.2430 C.2       4 UNK         0.4946 
     21 O          27.0328   -2.7602   -7.3442 O.2       4 UNK        -0.5353 
     22 CA         25.9932   -3.3982   -5.2935 C.3       4 UNK         0.0277 
     23 CB         27.0383   -4.4111   -4.7924 C.3       4 UNK        -0.1981 
     24 N          25.3293   -2.7764   -4.1445 N.am      4 UNK        -0.4209 
     25 C          24.0732   -2.3039   -4.1632 C.2       3 UNK         0.4942 
     26 O          23.3523   -2.3407   -5.1608 O.2       3 UNK        -0.5208 
     27 CA         23.5128   -1.6840   -2.8692 C.3       3 UNK         0.0250 
     28 CB         22.5512   -2.6611   -2.1736 C.3       3 UNK        -0.1990 
     29 N          24.5563   -1.2714   -1.9275 N.am      3 UNK        -0.4232 
     30 C          25.2956   -0.1615   -2.0749 C.2       2 UNK         0.4993 
     31 O          25.1190    0.6525   -2.9815 O.2       2 UNK        -0.5286 
     32 CA         26.4413    0.0712   -1.0698 C.3       2 UNK         0.0209 
     33 CB         25.9727    0.9846    0.0741 C.3       2 UNK        -0.1931 
     34 N          27.0138   -1.1563   -0.5049 N.am      2 UNK        -0.4546 
     35 C          27.5477   -2.1580   -1.2189 C.2       1 UNK         0.5154 
     36 O          27.6187   -2.1567   -2.4479 O.2       1 UNK        -0.5181 
     37 C          26.6397    0.3432   -7.8763 C.2       5 UNK         0.5014 
     38 O          27.2954    0.7741   -8.8250 O.2       5 UNK        -0.5248 
     39 N          25.3034    0.2049   -7.8959 N.am      6 UNK        -0.4434 
     40 CA         24.4082    0.5899   -8.9953 C.3       6 UNK         0.0363 
     41 CB         24.5559   -0.3942  -10.1786 C.3       6 UNK        -0.1936 
     42 C          24.6065    2.0732   -9.3738 C.2       6 UNK         0.5081 
     43 O          24.4165    2.9385   -8.5175 O.2       6 UNK        -0.5248 
     44 N          25.0454    2.3505  -10.6082 N.am      7 UNK        -0.4718 
     45 CA         25.4082    3.6811  -11.1078 C.3       7 UNK         0.0273 
     46 CB         25.2572    3.6890  -12.6410 C.3       7 UNK        -0.1935 
     47 C          26.8154    4.1270  -10.6465 C.2       7 UNK         0.5018 
     48 O          27.6162    4.5727  -11.4704 O.2       7 UNK        -0.5186 
     49 N          27.0853    3.9989   -9.3384 N.am      8 UNK        -0.4240 
     50 CA         28.3187    4.3687   -8.6284 C.3       8 UNK         0.0235 
     51 CB         28.4700    5.9044   -8.5825 C.3       8 UNK        -0.2000 
     52 C          29.5900    3.6614   -9.1492 C.2       8 UNK         0.4941 
     53 O          30.6650    4.2653   -9.1667 O.2       8 UNK        -0.5273 
     54 N          29.4589    2.3933   -9.5563 N.am      9 UNK        -0.4262 
     55 CA         30.5524    1.5562  -10.0408 C.3       9 UNK         0.0264 
     56 CB         29.9960    0.5558  -11.0703 C.3       9 UNK        -0.1955 
     57 C          31.2110    0.8453   -8.8503 C.2       9 UNK         0.5031 
     58 O          30.7257   -0.2024   -8.4228 O.2       9 UNK        -0.5390 
     59 N          32.2829    1.4410   -8.3126 N.am      10 UNK        -0.4204 
     60 CA         33.0850    0.8759   -7.2251 C.3       10 UNK         0.0237 
     61 CB         34.0338    1.9526   -6.6741 C.3       10 UNK        -0.1985 
     62 C          33.8665   -0.3627   -7.6906 C.2       10 UNK         0.4970 
     63 O          34.5868   -0.2807   -8.6882 O.2       10 UNK        -0.4914 
     64 N          33.7193   -1.4710   -6.9561 N.am      11 UNK        -0.4285 
     65 CA         34.3796   -2.7552   -7.2459 C.3       11 UNK         0.1007 
     66 C          35.8500   -2.8485   -6.7438 C.2       11 UNK         0.5703 
     67 N          36.3621   -1.8826   -5.9896 N.am      11 UNK        -0.7361 
     68 O          36.5455   -3.8122   -7.0560 O.2       11 UNK        -0.4986 
     69 C69        33.5376   -3.9628   -6.7538 C.3       12 UNK        -0.0947 
     70 S70        31.8587   -3.9705   -7.4719 S.3       12 UNK        -0.2240 
     71 C71        30.7986   -4.1849   -6.0061 C.3       12 UNK         0.0194 
     72 H72        25.8097   -6.6542   -1.3828 H         1 UNK         0.0906 
     73 H73        24.4325   -6.2463   -0.3593 H         1 UNK         0.0906 
     74 H74        24.5082   -5.6454   -2.0183 H         1 UNK         0.0906 
     75 H75        27.6102   -5.3370   -1.2006 H         1 UNK         0.3140 
     76 H76        27.8516   -3.2190    0.6323 H         1 UNK         0.1085 
     77 H77        29.7307   -4.6774   -0.1145 H         1 UNK         0.0836 
     78 H78        29.6466   -3.9969   -1.7130 H         1 UNK         0.0836 
     79 H79        32.4240   -3.5745   -1.2931 H         1 UNK         0.0731 
     80 H80        32.7622   -1.8754   -1.0854 H         1 UNK         0.0731 
     81 H81        31.7060   -4.3132   -3.4392 H         1 UNK         0.1312 
     82 H82        30.1577   -1.5630   -6.3289 H         1 UNK         0.1406 
     83 H83        31.1476   -0.1968   -2.3808 H         1 UNK         0.1631 
     84 H84        30.2239    0.8481   -5.8346 H         1 UNK         0.0717 
     85 H85        30.8429    1.4202   -4.3065 H         1 UNK         0.0717 
     86 H86        26.6155    1.7088   -5.4734 H         1 UNK         0.0934 
     87 H87        28.1192    2.0215   -6.3005 H         1 UNK         0.0934 
     88 H88        28.3605   -0.3746   -6.8818 H         1 UNK         0.0739 
     89 H89        26.4467   -0.8794   -4.8813 H         1 UNK         0.3093 
     90 H90        25.2491   -3.9502   -5.8719 H         1 UNK         0.0818 
     91 H91        27.8824   -3.9201   -4.3071 H         1 UNK         0.0819 
     92 H92        26.6047   -5.1169   -4.0842 H         1 UNK         0.0819 
     93 H93        27.4404   -4.9924   -5.6228 H         1 UNK         0.0819 
     94 H94        25.9067   -2.6412   -3.3195 H         1 UNK         0.3041 
     95 H95        22.9387   -0.7999   -3.1557 H         1 UNK         0.0784 
     96 H96        21.7230   -2.9268   -2.8321 H         1 UNK         0.0793 
     97 H97        23.0486   -3.5879   -1.8893 H         1 UNK         0.0793 
     98 H98        22.1204   -2.2219   -1.2737 H         1 UNK         0.0793 
     99 H99        24.7714   -1.9133   -1.1699 H         1 UNK         0.3024 
    100 H100       27.2414    0.5821   -1.6071 H         1 UNK         0.1171 
    101 H101       25.5661    1.9193   -0.3152 H         1 UNK         0.0786 
    102 H102       26.7971    1.2452    0.7382 H         1 UNK         0.0786 
    103 H103       25.1922    0.5137    0.6730 H         1 UNK         0.0786 
    104 H104       26.9551   -1.2567    0.4983 H         1 UNK         0.2977 
    105 H105       24.8500   -0.1285   -7.0567 H         1 UNK         0.3127 
    106 H106       23.3886    0.5049   -8.6164 H         1 UNK         0.0770 
    107 H107       25.5617   -0.3890  -10.6003 H         1 UNK         0.0814 
    108 H108       23.8542   -0.1584  -10.9798 H         1 UNK         0.0814 
    109 H109       24.3430   -1.4152   -9.8615 H         1 UNK         0.0814 
    110 H110       25.2366    1.5741  -11.2251 H         1 UNK         0.2983 
    111 H111       24.7019    4.4103  -10.7042 H         1 UNK         0.0947 
    112 H112       25.4532    4.6814  -13.0494 H         1 UNK         0.0806 
    113 H113       24.2464    3.4132  -12.9422 H         1 UNK         0.0806 
    114 H114       25.9516    2.9963  -13.1182 H         1 UNK         0.0806 
    115 H115       26.3436    3.6071   -8.7671 H         1 UNK         0.3000 
    116 H116       28.1887    4.0269   -7.6015 H         1 UNK         0.0850 
    117 H117       29.3049    6.1985   -7.9453 H         1 UNK         0.0810 
    118 H118       27.5757    6.3800   -8.1799 H         1 UNK         0.0810 
    119 H119       28.6548    6.3210   -9.5733 H         1 UNK         0.0810 
    120 H120       28.5658    1.9187   -9.4237 H         1 UNK         0.3040 
    121 H121       31.3000    2.1717  -10.5461 H         1 UNK         0.0766 
    122 H122       29.5670    1.0714  -11.9296 H         1 UNK         0.0812 
    123 H123       29.2196   -0.0795  -10.6416 H         1 UNK         0.0812 
    124 H124       30.7849   -0.0991  -11.4422 H         1 UNK         0.0812 
    125 H125       32.6059    2.3099   -8.7150 H         1 UNK         0.3205 
    126 H126       32.4133    0.5790   -6.4210 H         1 UNK         0.0754 
    127 H127       34.6265    1.5638   -5.8451 H         1 UNK         0.0769 
    128 H128       33.4806    2.8140   -6.2989 H         1 UNK         0.0769 
    129 H129       34.7305    2.3062   -7.4355 H         1 UNK         0.0769 
    130 H130       33.0942   -1.4680   -6.1633 H         1 UNK         0.2981 
    131 H131       34.4469   -2.8481   -8.3317 H         1 UNK         0.0541 
    132 H132       35.8040   -1.0864   -5.7289 H         1 UNK         0.3459 
    133 H133       37.3177   -1.9549   -5.6776 H         1 UNK         0.3459 
    134 H134       34.0144   -4.9030   -7.0364 H         1 UNK         0.0612 
    135 H135       33.4814   -3.9680   -5.6646 H         1 UNK         0.0612 
    136 H136       31.0262   -5.1471   -5.5449 H         1 UNK         0.0624 
    137 H137       29.7609   -4.2409   -6.3370 H         1 UNK         0.0624 
@<TRIPOS>BOND
     1    1    2 1    
     2    1   72 1    
     3    1   73 1    
     4    1   74 1    
     5    2    3 2    
     6    2    4 am   BACKBONE|DICT|INTERRES
     7    4    5 1    
     8    4   75 1    
     9    5    6 1    
    10    5   35 1    
    11    5   76 1    
    12    6    7 1    
    13    6   77 1    
    14    6   78 1    
    15    7    8 1    
    16    8    9 1    
    17    8   79 1    
    18    8   80 1    
    19    9   10 ar   
    20    9   14 ar   
    21   10   11 ar   
    22   10   81 1    
    23   11   12 ar   
    24   11   71 1    
    25   12   13 ar   
    26   12   82 1    
    27   13   14 ar   
    28   13   15 1    
    29   14   83 1    
    30   15   16 1    
    31   15   84 1    
    32   15   85 1    
    33   16   17 1    
    34   17   18 1    
    35   17   86 1    
    36   17   87 1    
    37   18   19 1    
    38   18   37 1    
    39   18   88 1    
    40   19   20 am   BACKBONE|DICT|INTERRES
    41   19   89 1    
    42   20   21 2    
    43   20   22 1    
    44   22   23 1    
    45   22   24 1    
    46   22   90 1    
    47   23   91 1    
    48   23   92 1    
    49   23   93 1    
    50   24   25 am   BACKBONE|DICT|INTERRES
    51   24   94 1    
    52   25   26 2    
    53   25   27 1    
    54   27   28 1    
    55   27   29 1    
    56   27   95 1    
    57   28   96 1    
    58   28   97 1    
    59   28   98 1    
    60   29   30 am   BACKBONE|DICT|INTERRES
    61   29   99 1    
    62   30   31 2    
    63   30   32 1    
    64   32   33 1    
    65   32   34 1    
    66   32  100 1    
    67   33  101 1    
    68   33  102 1    
    69   33  103 1    
    70   34   35 am   BACKBONE|DICT|INTERRES
    71   34  104 1    
    72   35   36 2    
    73   37   38 2    
    74   37   39 am   BACKBONE|DICT|INTERRES
    75   39   40 1    
    76   39  105 1    
    77   40   41 1    
    78   40   42 1    
    79   40  106 1    
    80   41  107 1    
    81   41  108 1    
    82   41  109 1    
    83   42   43 2    
    84   42   44 am   BACKBONE|DICT|INTERRES
    85   44   45 1    
    86   44  110 1    
    87   45   46 1    
    88   45   47 1    
    89   45  111 1    
    90   46  112 1    
    91   46  113 1    
    92   46  114 1    
    93   47   48 2    
    94   47   49 am   BACKBONE|DICT|INTERRES
    95   49   50 1    
    96   49  115 1    
    97   50   51 1    
    98   50   52 1    
    99   50  116 1    
   100   51  117 1    
   101   51  118 1    
   102   51  119 1    
   103   52   53 2    
   104   52   54 am   BACKBONE|DICT|INTERRES
   105   54   55 1    
   106   54  120 1    
   107   55   56 1    
   108   55   57 1    
   109   55  121 1    
   110   56  122 1    
   111   56  123 1    
   112   56  124 1    
   113   57   58 2    
   114   57   59 am   BACKBONE|DICT|INTERRES
   115   59   60 1    
   116   59  125 1    
   117   60   61 1    
   118   60   62 1    
   119   60  126 1    
   120   61  127 1    
   121   61  128 1    
   122   61  129 1    
   123   62   63 2    
   124   62   64 am   BACKBONE|DICT|INTERRES
   125   64   65 1    
   126   64  130 1    
   127   65   66 1    
   128   65   69 1    
   129   65  131 1    
   130   66   67 am   BACKBONE|DICT|INTERRES
   131   66   68 2    
   132   67  132 1    
   133   67  133 1    
   134   69   70 1    
   135   69  134 1    
   136   69  135 1    
   137   70   71 1    
   138   71  136 1    
   139   71  137 1    
@<TRIPOS>SUBSTRUCTURE
     1 UNK         1 GROUP             0       ****    0 ROOT    
