@<TRIPOS>MOLECULE
3R137
137   139    1
SMALL
USER_CHARGES


@<TRIPOS>ATOM
      1 CA         27.2369   -5.9765   -0.0334 C.3       0 UNK        -0.2020 
      2 C          26.3436   -6.0217   -1.2695 C.2       0 UNK         0.4855 
      3 O          25.4428   -6.8562   -1.3312 O.2       0 UNK        -0.5197 
      4 N          26.5380   -5.1571   -2.2725 N.am      1 UNK        -0.4892 
      5 CA         27.5304   -4.0839   -2.3496 C.3       1 UNK         0.0835 
      6 C6         28.6458   -4.3868   -3.3909 C.3       12 UNK        -0.0855 
      7 S7         29.8598   -5.6442   -2.8487 S.3       12 UNK        -0.2931 
      8 C8         30.9083   -4.7729   -1.6262 C.3       12 UNK         0.0378 
      9 C9         31.6442   -3.5700   -2.2054 C.ar      12 UNK        -0.0802 
     10 C10        32.9463   -3.6826   -2.7009 C.ar      12 UNK        -0.0944 
     11 C11        33.6079   -2.5615   -3.2170 C.ar      12 UNK        -0.0787 
     12 C12        32.9363   -1.3348   -3.2844 C.ar      12 UNK        -0.0862 
     13 C13        31.6270   -1.2093   -2.8075 C.ar      12 UNK        -0.0733 
     14 C14        31.0172   -2.3251   -2.2203 C.ar      12 UNK        -0.0832 
     15 C15        30.8918    0.1261   -2.9610 C.3       12 UNK         0.0240 
     16 S16        29.0741   -0.0403   -2.8901 S.3       12 UNK        -0.2522 
     17 C17        28.4541    1.4912   -3.6369 C.3       12 UNK        -0.0967 
     18 CA         28.1088    1.3484   -5.1429 C.3       5 UNK         0.0660 
     19 N          27.3456    0.1403   -5.4969 N.am      5 UNK        -0.4015 
     20 C          27.1467   -0.2740   -6.7586 C.2       4 UNK         0.4946 
     21 O          27.7088    0.2343   -7.7283 O.2       4 UNK        -0.5353 
     22 CA         26.1412   -1.4085   -7.0139 C.3       4 UNK         0.0277 
     23 CB         26.8367   -2.7666   -7.1901 C.3       4 UNK        -0.1981 
     24 N          25.1329   -1.5016   -5.9625 N.am      4 UNK        -0.4209 
     25 C          24.0501   -0.7179   -5.8847 C.2       3 UNK         0.4942 
     26 O          23.7591    0.1301   -6.7282 O.2       3 UNK        -0.5208 
     27 CA         23.1645   -0.8817   -4.6364 C.3       3 UNK         0.0250 
     28 CB         22.1111   -1.9776   -4.8625 C.3       3 UNK        -0.1990 
     29 N          23.9268   -1.1776   -3.4181 N.am      3 UNK        -0.4232 
     30 C          24.8132   -0.3388   -2.8650 C.2       2 UNK         0.4993 
     31 O          25.0755    0.7754   -3.3220 O.2       2 UNK        -0.5286 
     32 CA         25.5657   -0.8376   -1.6184 C.3       2 UNK         0.0209 
     33 CB         24.6892   -0.6737   -0.3660 C.3       2 UNK        -0.1931 
     34 N          26.0984   -2.2114   -1.6646 N.am      2 UNK        -0.4546 
     35 C          26.7757   -2.7817   -2.6743 C.2       1 UNK         0.5154 
     36 O          26.8122   -2.3277   -3.8171 O.2       1 UNK        -0.5181 
     37 C          27.3619    2.6050   -5.6224 C.2       5 UNK         0.5014 
     38 O          27.9696    3.4669   -6.2563 O.2       5 UNK        -0.5248 
     39 N          26.0479    2.6593   -5.3510 N.am      6 UNK        -0.4434 
     40 CA         25.1389    3.7208   -5.7956 C.3       6 UNK         0.0363 
     41 CB         23.7504    3.4962   -5.1765 C.3       6 UNK        -0.1936 
     42 C          25.0401    3.8363   -7.3279 C.2       6 UNK         0.5081 
     43 O          24.9425    4.9485   -7.8463 O.2       6 UNK        -0.5248 
     44 N          25.1063    2.6938   -8.0250 N.am      7 UNK        -0.4718 
     45 CA         25.1678    2.6092   -9.4874 C.3       7 UNK         0.0273 
     46 CB         24.7285    1.2005   -9.9198 C.3       7 UNK        -0.1935 
     47 C          26.5586    2.9307  -10.0723 C.2       7 UNK         0.5018 
     48 O          26.6711    3.0379  -11.2941 O.2       7 UNK        -0.5186 
     49 N          27.5859    3.0449   -9.2141 N.am      8 UNK        -0.4240 
     50 CA         29.0105    3.2104   -9.5347 C.3       8 UNK         0.0235 
     51 CB         29.2734    4.5744  -10.2080 C.3       8 UNK        -0.2000 
     52 C          29.5944    2.0206  -10.3255 C.2       8 UNK         0.4941 
     53 O          30.4826    2.2106  -11.1588 O.2       8 UNK        -0.5273 
     54 N          29.0807    0.8163  -10.0481 N.am      9 UNK        -0.4262 
     55 CA         29.4794   -0.4450  -10.6683 C.3       9 UNK         0.0264 
     56 CB         28.2151   -1.2538  -11.0043 C.3       9 UNK        -0.1955 
     57 C          30.4089   -1.2612   -9.7572 C.2       9 UNK         0.5031 
     58 O          31.2696   -1.9755  -10.2740 O.2       9 UNK        -0.5390 
     59 N          30.2271   -1.1626   -8.4315 N.am      10 UNK        -0.4204 
     60 CA         31.0633   -1.8439   -7.4423 C.3       10 UNK         0.0237 
     61 CB         30.3276   -1.9557   -6.0980 C.3       10 UNK        -0.1985 
     62 C          32.4007   -1.1129   -7.2702 C.2       10 UNK         0.4970 
     63 O          32.4223   -0.0166   -6.7058 O.2       10 UNK        -0.4914 
     64 N          33.4772   -1.7504   -7.7442 N.am      11 UNK        -0.4285 
     65 CA         34.8739   -1.3046   -7.6235 C.3       11 UNK         0.1007 
     66 C          35.1551    0.0548   -8.3379 C.2       11 UNK         0.5703 
     67 N          36.1873    0.7911   -7.9452 N.am      11 UNK        -0.7361 
     68 O          34.4797    0.4247   -9.2969 O.2       11 UNK        -0.4986 
     69 C69        35.3883   -1.3797   -6.1544 C.3       12 UNK        -0.0947 
     70 S70        35.2160   -3.0504   -5.4365 S.3       12 UNK        -0.2240 
     71 C71        35.0593   -2.6749   -3.6641 C.3       12 UNK         0.0194 
     72 H72        27.1008   -5.0434    0.5120 H         1 UNK         0.0906 
     73 H73        26.9918   -6.7944    0.6440 H         1 UNK         0.0906 
     74 H74        28.2862   -6.0807   -0.3054 H         1 UNK         0.0906 
     75 H75        25.9161   -5.2058   -3.0681 H         1 UNK         0.3140 
     76 H76        28.0095   -3.9105   -1.3862 H         1 UNK         0.1085 
     77 H77        28.1957   -4.7418   -4.3198 H         1 UNK         0.0836 
     78 H78        29.1855   -3.4852   -3.6781 H         1 UNK         0.0836 
     79 H79        31.6316   -5.4845   -1.2250 H         1 UNK         0.0731 
     80 H80        30.2975   -4.4641   -0.7770 H         1 UNK         0.0731 
     81 H81        33.4517   -4.6383   -2.6681 H         1 UNK         0.1312 
     82 H82        33.4317   -0.4740   -3.7114 H         1 UNK         0.1406 
     83 H83        30.0243   -2.2494   -1.8041 H         1 UNK         0.1631 
     84 H84        31.1607    0.5739   -3.9193 H         1 UNK         0.0717 
     85 H85        31.2217    0.8142   -2.1819 H         1 UNK         0.0717 
     86 H86        27.5746    1.7850   -3.0607 H         1 UNK         0.0934 
     87 H87        29.1875    2.2860   -3.4869 H         1 UNK         0.0934 
     88 H88        29.0535    1.3018   -5.6893 H         1 UNK         0.0739 
     89 H89        26.9285   -0.3816   -4.7352 H         1 UNK         0.3093 
     90 H90        25.6391   -1.1817   -7.9556 H         1 UNK         0.0818 
     91 H91        27.2496   -3.1389   -6.2538 H         1 UNK         0.0819 
     92 H92        26.1373   -3.5167   -7.5593 H         1 UNK         0.0819 
     93 H93        27.6514   -2.7047   -7.9124 H         1 UNK         0.0819 
     94 H94        25.3657   -2.0971   -5.1747 H         1 UNK         0.3041 
     95 H95        22.6437    0.0656   -4.4803 H         1 UNK         0.0784 
     96 H96        21.5169   -1.7684   -5.7533 H         1 UNK         0.0793 
     97 H97        22.5692   -2.9580   -4.9991 H         1 UNK         0.0793 
     98 H98        21.4195   -2.0430   -4.0223 H         1 UNK         0.0793 
     99 H99        23.7827   -2.0794   -2.9873 H         1 UNK         0.3024 
    100 H100       26.4279   -0.1784   -1.5021 H         1 UNK         0.1171 
    101 H101       25.2598   -0.8539    0.5453 H         1 UNK         0.0786 
    102 H102       24.2887    0.3390   -0.2971 H         1 UNK         0.0786 
    103 H103       23.8416   -1.3600   -0.3729 H         1 UNK         0.0786 
    104 H104       26.0756   -2.7074   -0.7855 H         1 UNK         0.2977 
    105 H105       25.6428    1.9246   -4.7741 H         1 UNK         0.3127 
    106 H106       25.5322    4.6676   -5.4197 H         1 UNK         0.0770 
    107 H107       23.3102    2.5536   -5.5035 H         1 UNK         0.0814 
    108 H108       23.0627    4.2938   -5.4606 H         1 UNK         0.0814 
    109 H109       23.7989    3.4815   -4.0875 H         1 UNK         0.0814 
    110 H110       25.1113    1.8184   -7.5161 H         1 UNK         0.2983 
    111 H111       24.4633    3.3313   -9.9060 H         1 UNK         0.0947 
    112 H112       24.6457    1.1340  -11.0054 H         1 UNK         0.0806 
    113 H113       23.7553    0.9382   -9.5041 H         1 UNK         0.0806 
    114 H114       25.4464    0.4435   -9.6050 H         1 UNK         0.0806 
    115 H115       27.3836    2.9590   -8.2246 H         1 UNK         0.3000 
    116 H116       29.5329    3.2132   -8.5769 H         1 UNK         0.0850 
    117 H117       30.3433    4.7597  -10.3104 H         1 UNK         0.0810 
    118 H118       28.8591    5.3927   -9.6191 H         1 UNK         0.0810 
    119 H119       28.8389    4.6246  -11.2067 H         1 UNK         0.0810 
    120 H120       28.3942    0.7492   -9.2976 H         1 UNK         0.3040 
    121 H121       30.0145   -0.2501  -11.6001 H         1 UNK         0.0766 
    122 H122       27.5765   -0.7132  -11.7032 H         1 UNK         0.0812 
    123 H123       27.6239   -1.4719  -10.1144 H         1 UNK         0.0812 
    124 H124       28.4721   -2.2065  -11.4694 H         1 UNK         0.0812 
    125 H125       29.4995   -0.5479   -8.0828 H         1 UNK         0.3205 
    126 H126       31.2561   -2.8618   -7.7888 H         1 UNK         0.0754 
    127 H127       30.9652   -2.4263   -5.3486 H         1 UNK         0.0769 
    128 H128       29.4366   -2.5715   -6.1800 H         1 UNK         0.0769 
    129 H129       30.0359   -0.9809   -5.7092 H         1 UNK         0.0769 
    130 H130       33.3424   -2.6174   -8.2431 H         1 UNK         0.2981 
    131 H131       35.4492   -2.0291   -8.2005 H         1 UNK         0.0541 
    132 H132       36.7737    0.5017   -7.1789 H         1 UNK         0.3459 
    133 H133       36.3796    1.6565   -8.4250 H         1 UNK         0.3459 
    134 H134       34.8630   -0.6538   -5.5335 H         1 UNK         0.0612 
    135 H135       36.4472   -1.1244   -6.0986 H         1 UNK         0.0612 
    136 H136       35.6030   -1.7593   -3.4264 H         1 UNK         0.0624 
    137 H137       35.5539   -3.4683   -3.1017 H         1 UNK         0.0624 
@<TRIPOS>BOND
     1    1    2 1    
     2    1   72 1    
     3    1   73 1    
     4    1   74 1    
     5    2    3 2    
     6    2    4 am   BACKBONE|DICT|INTERRES
     7    4    5 1    
     8    4   75 1    
     9    5    6 1    
    10    5   35 1    
    11    5   76 1    
    12    6    7 1    
    13    6   77 1    
    14    6   78 1    
    15    7    8 1    
    16    8    9 1    
    17    8   79 1    
    18    8   80 1    
    19    9   10 ar   
    20    9   14 ar   
    21   10   11 ar   
    22   10   81 1    
    23   11   12 ar   
    24   11   71 1    
    25   12   13 ar   
    26   12   82 1    
    27   13   14 ar   
    28   13   15 1    
    29   14   83 1    
    30   15   16 1    
    31   15   84 1    
    32   15   85 1    
    33   16   17 1    
    34   17   18 1    
    35   17   86 1    
    36   17   87 1    
    37   18   19 1    
    38   18   37 1    
    39   18   88 1    
    40   19   20 am   BACKBONE|DICT|INTERRES
    41   19   89 1    
    42   20   21 2    
    43   20   22 1    
    44   22   23 1    
    45   22   24 1    
    46   22   90 1    
    47   23   91 1    
    48   23   92 1    
    49   23   93 1    
    50   24   25 am   BACKBONE|DICT|INTERRES
    51   24   94 1    
    52   25   26 2    
    53   25   27 1    
    54   27   28 1    
    55   27   29 1    
    56   27   95 1    
    57   28   96 1    
    58   28   97 1    
    59   28   98 1    
    60   29   30 am   BACKBONE|DICT|INTERRES
    61   29   99 1    
    62   30   31 2    
    63   30   32 1    
    64   32   33 1    
    65   32   34 1    
    66   32  100 1    
    67   33  101 1    
    68   33  102 1    
    69   33  103 1    
    70   34   35 am   BACKBONE|DICT|INTERRES
    71   34  104 1    
    72   35   36 2    
    73   37   38 2    
    74   37   39 am   BACKBONE|DICT|INTERRES
    75   39   40 1    
    76   39  105 1    
    77   40   41 1    
    78   40   42 1    
    79   40  106 1    
    80   41  107 1    
    81   41  108 1    
    82   41  109 1    
    83   42   43 2    
    84   42   44 am   BACKBONE|DICT|INTERRES
    85   44   45 1    
    86   44  110 1    
    87   45   46 1    
    88   45   47 1    
    89   45  111 1    
    90   46  112 1    
    91   46  113 1    
    92   46  114 1    
    93   47   48 2    
    94   47   49 am   BACKBONE|DICT|INTERRES
    95   49   50 1    
    96   49  115 1    
    97   50   51 1    
    98   50   52 1    
    99   50  116 1    
   100   51  117 1    
   101   51  118 1    
   102   51  119 1    
   103   52   53 2    
   104   52   54 am   BACKBONE|DICT|INTERRES
   105   54   55 1    
   106   54  120 1    
   107   55   56 1    
   108   55   57 1    
   109   55  121 1    
   110   56  122 1    
   111   56  123 1    
   112   56  124 1    
   113   57   58 2    
   114   57   59 am   BACKBONE|DICT|INTERRES
   115   59   60 1    
   116   59  125 1    
   117   60   61 1    
   118   60   62 1    
   119   60  126 1    
   120   61  127 1    
   121   61  128 1    
   122   61  129 1    
   123   62   63 2    
   124   62   64 am   BACKBONE|DICT|INTERRES
   125   64   65 1    
   126   64  130 1    
   127   65   66 1    
   128   65   69 1    
   129   65  131 1    
   130   66   67 am   BACKBONE|DICT|INTERRES
   131   66   68 2    
   132   67  132 1    
   133   67  133 1    
   134   69   70 1    
   135   69  134 1    
   136   69  135 1    
   137   70   71 1    
   138   71  136 1    
   139   71  137 1    
@<TRIPOS>SUBSTRUCTURE
     1 UNK         1 GROUP             0       ****    0 ROOT    
