@<TRIPOS>MOLECULE
3R137
137   139    1
SMALL
USER_CHARGES


@<TRIPOS>ATOM
      1 CA         26.6882   -4.6918    4.1745 C.3       0 UNK        -0.2020 
      2 C          26.6318   -3.7453    2.9845 C.2       0 UNK         0.4855 
      3 O          25.6223   -3.0672    2.7883 O.2       0 UNK        -0.5197 
      4 N          27.7106   -3.6865    2.1950 N.am      1 UNK        -0.4892 
      5 CA         27.8061   -2.8966    0.9637 C.3       1 UNK         0.0835 
      6 C6         29.2834   -2.6011    0.5947 C.3       12 UNK        -0.0855 
      7 S7         30.3174   -4.0896    0.3320 S.3       12 UNK        -0.2931 
      8 C8         31.7971   -3.3881   -0.4698 C.3       12 UNK         0.0378 
      9 C9         31.4967   -2.8679   -1.8685 C.ar      12 UNK        -0.0802 
     10 C10        31.4326   -3.7483   -2.9532 C.ar      12 UNK        -0.0944 
     11 C11        31.1363   -3.2743   -4.2357 C.ar      12 UNK        -0.0787 
     12 C12        30.8839   -1.9125   -4.4257 C.ar      12 UNK        -0.0862 
     13 C13        30.9398   -1.0264   -3.3466 C.ar      12 UNK        -0.0733 
     14 C14        31.2702   -1.5046   -2.0765 C.ar      12 UNK        -0.0832 
     15 C15        30.5798    0.4357   -3.5368 C.3       12 UNK         0.0240 
     16 S16        28.8803    0.7061   -2.9529 S.3       12 UNK        -0.2522 
     17 C17        28.3517    2.1767   -3.8914 C.3       12 UNK        -0.0967 
     18 CA         28.2318    1.9637   -5.4253 C.3       5 UNK         0.0660 
     19 N          27.6747    0.6542   -5.7846 N.am      5 UNK        -0.4015 
     20 C          27.6096    0.1626   -7.0297 C.2       4 UNK         0.4946 
     21 O          28.0186    0.7643   -8.0210 O.2       4 UNK        -0.5353 
     22 CA         26.9212   -1.1964   -7.2274 C.3       4 UNK         0.0277 
     23 CB         27.9598   -2.3272   -7.1761 C.3       4 UNK        -0.1981 
     24 N          25.8483   -1.4848   -6.2721 N.am      4 UNK        -0.4209 
     25 C          24.8034   -0.7004   -5.9624 C.2       3 UNK         0.4942 
     26 O          24.6054    0.4091   -6.4615 O.2       3 UNK        -0.5208 
     27 CA         23.8364   -1.2323   -4.8877 C.3       3 UNK         0.0250 
     28 CB         22.5729   -1.8073   -5.5468 C.3       3 UNK        -0.1990 
     29 N          24.4456   -2.2516   -4.0212 N.am      3 UNK        -0.4232 
     30 C          25.4099   -1.9963   -3.1256 C.2       2 UNK         0.4993 
     31 O          25.8233   -0.8632   -2.8696 O.2       2 UNK        -0.5286 
     32 CA         26.0650   -3.2103   -2.4594 C.3       2 UNK         0.0209 
     33 CB         27.0912   -3.8623   -3.4092 C.3       2 UNK        -0.1931 
     34 N          26.7420   -2.7735   -1.2421 N.am      2 UNK        -0.4546 
     35 C          27.0350   -3.5595   -0.2007 C.2       1 UNK         0.5154 
     36 O          26.7392   -4.7580   -0.1516 O.2       1 UNK        -0.5181 
     37 C          27.4619    3.1413   -6.0619 C.2       5 UNK         0.5014 
     38 O          28.0663    4.1855   -6.3078 O.2       5 UNK        -0.5248 
     39 N          26.1591    2.9544   -6.3166 N.am      6 UNK        -0.4434 
     40 CA         25.3000    3.9169   -7.0028 C.3       6 UNK         0.0363 
     41 CB         23.9623    4.0269   -6.2524 C.3       6 UNK        -0.1936 
     42 C          25.0617    3.5018   -8.4614 C.2       6 UNK         0.5081 
     43 O          25.0716    4.3639   -9.3400 O.2       6 UNK        -0.5248 
     44 N          24.8311    2.2014   -8.6959 N.am      7 UNK        -0.4718 
     45 CA         24.4602    1.6537  -10.0032 C.3       7 UNK         0.0273 
     46 CB         23.8861    0.2396   -9.8193 C.3       7 UNK        -0.1935 
     47 C          25.6023    1.6462  -11.0337 C.2       7 UNK         0.5018 
     48 O          25.3284    1.8301  -12.2207 O.2       7 UNK        -0.5186 
     49 N          26.8418    1.4239  -10.5780 N.am      8 UNK        -0.4240 
     50 CA         28.0386    1.3532  -11.4224 C.3       8 UNK         0.0235 
     51 CB         28.5884   -0.0844  -11.4007 C.3       8 UNK        -0.2000 
     52 C          29.1267    2.3409  -10.9781 C.2       8 UNK         0.4941 
     53 O          29.8632    2.8341  -11.8328 O.2       8 UNK        -0.5273 
     54 N          29.2253    2.5870   -9.6623 N.am      9 UNK        -0.4262 
     55 CA         30.2879    3.3252   -8.9682 C.3       9 UNK         0.0264 
     56 CB         30.3087    4.8127   -9.3794 C.3       9 UNK        -0.1955 
     57 C          31.6529    2.6238   -9.1097 C.2       9 UNK         0.5031 
     58 O          32.6759    3.2846   -9.3019 O.2       9 UNK        -0.5390 
     59 N          31.6341    1.2882   -9.0247 N.am      10 UNK        -0.4204 
     60 CA         32.7696    0.3926   -9.2149 C.3       10 UNK         0.0237 
     61 CB         33.0724    0.2515  -10.7214 C.3       10 UNK        -0.1985 
     62 C          32.4400   -0.9669   -8.5837 C.2       10 UNK         0.4970 
     63 O          31.3071   -1.1834   -8.1447 O.2       10 UNK        -0.4914 
     64 N          33.4336   -1.8584   -8.5711 N.am      11 UNK        -0.4285 
     65 CA         33.3355   -3.2492   -8.1197 C.3       11 UNK         0.1007 
     66 C          34.3451   -4.1328   -8.9011 C.2       11 UNK         0.5703 
     67 N          34.1394   -5.4417   -8.9291 N.am      11 UNK        -0.7361 
     68 O          35.3180   -3.6445   -9.4761 O.2       11 UNK        -0.4986 
     69 C69        33.4959   -3.3616   -6.5786 C.3       12 UNK        -0.0947 
     70 S70        32.7100   -4.8574   -5.8887 S.3       12 UNK        -0.2240 
     71 C71        31.0666   -4.2363   -5.4125 C.3       12 UNK         0.0194 
     72 H72        25.8979   -5.4381    4.0974 H         1 UNK         0.0906 
     73 H73        27.6428   -5.2142    4.2353 H         1 UNK         0.0906 
     74 H74        26.5453   -4.1381    5.1021 H         1 UNK         0.0906 
     75 H75        28.4984   -4.2944    2.3719 H         1 UNK         0.3140 
     76 H76        27.3205   -1.9359    1.1518 H         1 UNK         0.1085 
     77 H77        29.7442   -2.0066    1.3852 H         1 UNK         0.0836 
     78 H78        29.3134   -1.9741   -0.2960 H         1 UNK         0.0836 
     79 H79        32.5659   -4.1601   -0.5273 H         1 UNK         0.0731 
     80 H80        32.2087   -2.5959    0.1578 H         1 UNK         0.0731 
     81 H81        31.6100   -4.8040   -2.7996 H         1 UNK         0.1312 
     82 H82        30.6325   -1.5442   -5.4115 H         1 UNK         0.1406 
     83 H83        31.3056   -0.8180   -1.2414 H         1 UNK         0.1631 
     84 H84        30.6754    0.7101   -4.5873 H         1 UNK         0.0717 
     85 H85        31.2666    1.0755   -2.9808 H         1 UNK         0.0717 
     86 H86        27.3886    2.4747   -3.4708 H         1 UNK         0.0934 
     87 H87        29.0386    2.9974   -3.6754 H         1 UNK         0.0934 
     88 H88        29.2378    1.9946   -5.8474 H         1 UNK         0.0739 
     89 H89        27.3169    0.1020   -5.0168 H         1 UNK         0.3093 
     90 H90        26.4778   -1.1897   -8.2237 H         1 UNK         0.0818 
     91 H91        28.4047   -2.4213   -6.1852 H         1 UNK         0.0819 
     92 H92        27.5170   -3.2881   -7.4385 H         1 UNK         0.0819 
     93 H93        28.7712   -2.1455   -7.8826 H         1 UNK         0.0819 
     94 H94        25.9016   -2.3784   -5.8081 H         1 UNK         0.3041 
     95 H95        23.5436   -0.3835   -4.2658 H         1 UNK         0.0784 
     96 H96        22.0886   -1.0603   -6.1779 H         1 UNK         0.0793 
     97 H97        22.7995   -2.6680   -6.1774 H         1 UNK         0.0793 
     98 H98        21.8425   -2.1195   -4.8001 H         1 UNK         0.0793 
     99 H99        24.1471   -3.2064   -4.1657 H         1 UNK         0.3024 
    100 H100       25.2834   -3.9293   -2.2022 H         1 UNK         0.1171 
    101 H101       27.5642   -4.7298   -2.9485 H         1 UNK         0.0786 
    102 H102       26.6206   -4.2076   -4.3301 H         1 UNK         0.0786 
    103 H103       27.8836   -3.1639   -3.6838 H         1 UNK         0.0786 
    104 H104       26.9636   -1.7847   -1.2274 H         1 UNK         0.2977 
    105 H105       25.7451    2.0501   -6.1144 H         1 UNK         0.3127 
    106 H106       25.7640    4.9058   -7.0089 H         1 UNK         0.0770 
    107 H107       23.4420    3.0691   -6.2058 H         1 UNK         0.0814 
    108 H108       23.2964    4.7372   -6.7444 H         1 UNK         0.0814 
    109 H109       24.1107    4.3764   -5.2306 H         1 UNK         0.0814 
    110 H110       24.7961    1.5583   -7.9082 H         1 UNK         0.2983 
    111 H111       23.6662    2.2836  -10.4111 H         1 UNK         0.0947 
    112 H112       23.5529   -0.1733  -10.7725 H         1 UNK         0.0806 
    113 H113       23.0252    0.2447   -9.1503 H         1 UNK         0.0806 
    114 H114       24.6239   -0.4477   -9.4075 H         1 UNK         0.0806 
    115 H115       26.9799    1.2758   -9.5836 H         1 UNK         0.3000 
    116 H116       27.7912    1.6045  -12.4560 H         1 UNK         0.0850 
    117 H117       29.4823   -0.1706  -12.0201 H         1 UNK         0.0810 
    118 H118       27.8561   -0.7925  -11.7885 H         1 UNK         0.0810 
    119 H119       28.8586   -0.4019  -10.3926 H         1 UNK         0.0810 
    120 H120       28.6233    2.0437   -9.0450 H         1 UNK         0.3040 
    121 H121       30.0433    3.2849   -7.9070 H         1 UNK         0.0766 
    122 H122       29.3269    5.2695   -9.2539 H         1 UNK         0.0812 
    123 H123       30.6135    4.9459  -10.4175 H         1 UNK         0.0812 
    124 H124       31.0087    5.3763   -8.7617 H         1 UNK         0.0812 
    125 H125       30.7700    0.8101   -8.7954 H         1 UNK         0.3205 
    126 H126       33.6389    0.8050   -8.6984 H         1 UNK         0.0754 
    127 H127       33.9301   -0.3979  -10.8996 H         1 UNK         0.0769 
    128 H128       33.3062    1.2158  -11.1731 H         1 UNK         0.0769 
    129 H129       32.2236   -0.1697  -11.2620 H         1 UNK         0.0769 
    130 H130       34.3246   -1.6262   -8.9902 H         1 UNK         0.2981 
    131 H131       32.3397   -3.6005   -8.3989 H         1 UNK         0.0541 
    132 H132       34.7866   -6.0315   -9.4283 H         1 UNK         0.3459 
    133 H133       33.3644   -5.8517   -8.4308 H         1 UNK         0.3459 
    134 H134       34.5497   -3.3561   -6.2948 H         1 UNK         0.0612 
    135 H135       33.0634   -2.4903   -6.0875 H         1 UNK         0.0612 
    136 H136       30.6009   -3.7634   -6.2786 H         1 UNK         0.0624 
    137 H137       30.4323   -5.0827   -5.1457 H         1 UNK         0.0624 
@<TRIPOS>BOND
     1    1    2 1    
     2    1   72 1    
     3    1   73 1    
     4    1   74 1    
     5    2    3 2    
     6    2    4 am   BACKBONE|DICT|INTERRES
     7    4    5 1    
     8    4   75 1    
     9    5    6 1    
    10    5   35 1    
    11    5   76 1    
    12    6    7 1    
    13    6   77 1    
    14    6   78 1    
    15    7    8 1    
    16    8    9 1    
    17    8   79 1    
    18    8   80 1    
    19    9   10 ar   
    20    9   14 ar   
    21   10   11 ar   
    22   10   81 1    
    23   11   12 ar   
    24   11   71 1    
    25   12   13 ar   
    26   12   82 1    
    27   13   14 ar   
    28   13   15 1    
    29   14   83 1    
    30   15   16 1    
    31   15   84 1    
    32   15   85 1    
    33   16   17 1    
    34   17   18 1    
    35   17   86 1    
    36   17   87 1    
    37   18   19 1    
    38   18   37 1    
    39   18   88 1    
    40   19   20 am   BACKBONE|DICT|INTERRES
    41   19   89 1    
    42   20   21 2    
    43   20   22 1    
    44   22   23 1    
    45   22   24 1    
    46   22   90 1    
    47   23   91 1    
    48   23   92 1    
    49   23   93 1    
    50   24   25 am   BACKBONE|DICT|INTERRES
    51   24   94 1    
    52   25   26 2    
    53   25   27 1    
    54   27   28 1    
    55   27   29 1    
    56   27   95 1    
    57   28   96 1    
    58   28   97 1    
    59   28   98 1    
    60   29   30 am   BACKBONE|DICT|INTERRES
    61   29   99 1    
    62   30   31 2    
    63   30   32 1    
    64   32   33 1    
    65   32   34 1    
    66   32  100 1    
    67   33  101 1    
    68   33  102 1    
    69   33  103 1    
    70   34   35 am   BACKBONE|DICT|INTERRES
    71   34  104 1    
    72   35   36 2    
    73   37   38 2    
    74   37   39 am   BACKBONE|DICT|INTERRES
    75   39   40 1    
    76   39  105 1    
    77   40   41 1    
    78   40   42 1    
    79   40  106 1    
    80   41  107 1    
    81   41  108 1    
    82   41  109 1    
    83   42   43 2    
    84   42   44 am   BACKBONE|DICT|INTERRES
    85   44   45 1    
    86   44  110 1    
    87   45   46 1    
    88   45   47 1    
    89   45  111 1    
    90   46  112 1    
    91   46  113 1    
    92   46  114 1    
    93   47   48 2    
    94   47   49 am   BACKBONE|DICT|INTERRES
    95   49   50 1    
    96   49  115 1    
    97   50   51 1    
    98   50   52 1    
    99   50  116 1    
   100   51  117 1    
   101   51  118 1    
   102   51  119 1    
   103   52   53 2    
   104   52   54 am   BACKBONE|DICT|INTERRES
   105   54   55 1    
   106   54  120 1    
   107   55   56 1    
   108   55   57 1    
   109   55  121 1    
   110   56  122 1    
   111   56  123 1    
   112   56  124 1    
   113   57   58 2    
   114   57   59 am   BACKBONE|DICT|INTERRES
   115   59   60 1    
   116   59  125 1    
   117   60   61 1    
   118   60   62 1    
   119   60  126 1    
   120   61  127 1    
   121   61  128 1    
   122   61  129 1    
   123   62   63 2    
   124   62   64 am   BACKBONE|DICT|INTERRES
   125   64   65 1    
   126   64  130 1    
   127   65   66 1    
   128   65   69 1    
   129   65  131 1    
   130   66   67 am   BACKBONE|DICT|INTERRES
   131   66   68 2    
   132   67  132 1    
   133   67  133 1    
   134   69   70 1    
   135   69  134 1    
   136   69  135 1    
   137   70   71 1    
   138   71  136 1    
   139   71  137 1    
@<TRIPOS>SUBSTRUCTURE
     1 UNK         1 GROUP             0       ****    0 ROOT    
