@<TRIPOS>MOLECULE
3R137
137   139    1
SMALL
USER_CHARGES


@<TRIPOS>ATOM
      1 CA         23.2522   -5.0618   -3.5615 C.3       0 UNK        -0.2020 
      2 C          24.1252   -4.8239   -2.3393 C.2       0 UNK         0.4855 
      3 O          23.9605   -5.4971   -1.3213 O.2       0 UNK        -0.5197 
      4 N          25.0373   -3.8501   -2.4175 N.am      1 UNK        -0.4892 
      5 CA         25.9683   -3.4555   -1.3568 C.3       1 UNK         0.0835 
      6 C6         27.2575   -2.8232   -1.9408 C.3       12 UNK        -0.0855 
      7 S7         28.1579   -3.9719   -3.0394 S.3       12 UNK        -0.2931 
      8 C8         29.8900   -3.6399   -2.5913 C.3       12 UNK         0.0378 
      9 C9         30.4843   -2.5292   -3.4449 C.ar      12 UNK        -0.0802 
     10 C10        31.3611   -2.8473   -4.4876 C.ar      12 UNK        -0.0944 
     11 C11        31.9394   -1.8368   -5.2590 C.ar      12 UNK        -0.0787 
     12 C12        31.6098   -0.5044   -5.0047 C.ar      12 UNK        -0.0862 
     13 C13        30.7293   -0.1706   -3.9724 C.ar      12 UNK        -0.0733 
     14 C14        30.1812   -1.1876   -3.1833 C.ar      12 UNK        -0.0832 
     15 C15        30.3949    1.2945   -3.7130 C.3       12 UNK         0.0240 
     16 S16        28.6229    1.6881   -3.9023 S.3       12 UNK        -0.2522 
     17 C17        28.1792    0.8811   -5.4795 C.3       12 UNK        -0.0967 
     18 CA         27.1835   -0.2759   -5.2211 C.3       5 UNK         0.0660 
     19 N          25.8776    0.2338   -4.7858 N.am      5 UNK        -0.4015 
     20 C          24.8529   -0.5093   -4.3522 C.2       4 UNK         0.4946 
     21 O          24.8880   -1.7364   -4.2203 O.2       4 UNK        -0.5353 
     22 CA         23.5576    0.2447   -4.0314 C.3       4 UNK         0.0277 
     23 CB         22.7840    0.5515   -5.3304 C.3       4 UNK        -0.1981 
     24 N          22.7527   -0.5840   -3.1374 N.am      4 UNK        -0.4209 
     25 C          21.6547   -0.2030   -2.4741 C.2       3 UNK         0.4942 
     26 O          21.1839    0.9344   -2.5138 O.2       3 UNK        -0.5208 
     27 CA         20.9634   -1.2784   -1.6212 C.3       3 UNK         0.0250 
     28 CB         20.2641   -2.3206   -2.5110 C.3       3 UNK        -0.1990 
     29 N          21.8988   -1.9493   -0.7172 N.am      3 UNK        -0.4232 
     30 C          22.3595   -1.4225    0.4270 C.2       2 UNK         0.4993 
     31 O          22.0197   -0.3230    0.8650 O.2       2 UNK        -0.5286 
     32 CA         23.3701   -2.2695    1.2200 C.3       2 UNK         0.0209 
     33 CB         22.6426   -3.2255    2.1795 C.3       2 UNK        -0.1931 
     34 N          24.2602   -3.0389    0.3469 N.am      2 UNK        -0.4546 
     35 C          25.2460   -2.5025   -0.3841 C.2       1 UNK         0.5154 
     36 O          25.5487   -1.3084   -0.3413 O.2       1 UNK        -0.5181 
     37 C          27.0598   -1.1920   -6.4530 C.2       5 UNK         0.5014 
     38 O          26.1915   -0.9684   -7.3007 O.2       5 UNK        -0.5248 
     39 N          27.9445   -2.1974   -6.5256 N.am      6 UNK        -0.4434 
     40 CA         27.9630   -3.2328   -7.5645 C.3       6 UNK         0.0363 
     41 CB         29.0203   -4.2892   -7.2055 C.3       6 UNK        -0.1936 
     42 C          28.1841   -2.6976   -8.9919 C.2       6 UNK         0.5081 
     43 O          27.6655   -3.2860   -9.9417 O.2       6 UNK        -0.5248 
     44 N          28.9161   -1.5867   -9.1162 N.am      7 UNK        -0.4718 
     45 CA         29.1182   -0.8252  -10.3426 C.3       7 UNK         0.0273 
     46 CB         30.1625   -1.5133  -11.2424 C.3       7 UNK        -0.1935 
     47 C          29.5289    0.6050   -9.9692 C.2       7 UNK         0.5018 
     48 O          29.9502    0.8515   -8.8343 O.2       7 UNK        -0.5186 
     49 N          29.3845    1.5227  -10.9326 N.am      8 UNK        -0.4240 
     50 CA         29.7370    2.9388  -10.8063 C.3       8 UNK         0.0235 
     51 CB         29.1494    3.7010  -12.0066 C.3       8 UNK        -0.2000 
     52 C          31.2569    3.1632  -10.7198 C.2       8 UNK         0.4941 
     53 O          32.0324    2.2891  -11.1143 O.2       8 UNK        -0.5273 
     54 N          31.6444    4.3467  -10.2186 N.am      9 UNK        -0.4262 
     55 CA         33.0247    4.8329  -10.0634 C.3       9 UNK         0.0264 
     56 CB         33.6500    5.1296  -11.4437 C.3       9 UNK        -0.1955 
     57 C          33.8975    3.8982   -9.2021 C.2       9 UNK         0.5031 
     58 O          35.0354    3.5986   -9.5707 O.2       9 UNK        -0.5390 
     59 N          33.3182    3.4159   -8.0907 N.am      10 UNK        -0.4204 
     60 CA         33.8847    2.4377   -7.1501 C.3       10 UNK         0.0237 
     61 CB         35.0312    3.0714   -6.3337 C.3       10 UNK        -0.1985 
     62 C          34.2935    1.1092   -7.8241 C.2       10 UNK         0.4970 
     63 O          35.2778    0.4915   -7.4150 O.2       10 UNK        -0.4914 
     64 N          33.5358    0.7141   -8.8557 N.am      11 UNK        -0.4285 
     65 CA         33.7819   -0.4348   -9.7405 C.3       11 UNK         0.1007 
     66 C          35.0293   -0.2831  -10.6646 C.2       11 UNK         0.5703 
     67 N          35.6247    0.8969  -10.8040 N.am      11 UNK        -0.7361 
     68 O          35.4527   -1.2481  -11.2971 O.2       11 UNK        -0.4986 
     69 C69        33.7330   -1.8148   -9.0167 C.3       12 UNK        -0.0947 
     70 S70        32.2337   -2.0477   -8.0000 S.3       12 UNK        -0.2240 
     71 C71        32.9570   -2.1665   -6.3384 C.3       12 UNK         0.0194 
     72 H72        23.3925   -4.2884   -4.3170 H         1 UNK         0.0906 
     73 H73        23.4949   -6.0242   -4.0110 H         1 UNK         0.0906 
     74 H74        22.2002   -5.0748   -3.2787 H         1 UNK         0.0906 
     75 H75        25.0820   -3.2639   -3.2513 H         1 UNK         0.3140 
     76 H76        26.2608   -4.3414   -0.7881 H         1 UNK         0.1085 
     77 H77        27.9138   -2.5112   -1.1268 H         1 UNK         0.0836 
     78 H78        27.0217   -1.9182   -2.4995 H         1 UNK         0.0836 
     79 H79        30.4587   -4.5612   -2.7274 H         1 UNK         0.0731 
     80 H80        29.9789   -3.3926   -1.5328 H         1 UNK         0.0731 
     81 H81        31.6109   -3.8809   -4.6859 H         1 UNK         0.1312 
     82 H82        32.0501    0.2723   -5.6124 H         1 UNK         0.1406 
     83 H83        29.5097   -0.9324   -2.3750 H         1 UNK         0.1631 
     84 H84        30.9615    1.9434   -4.3828 H         1 UNK         0.0717 
     85 H85        30.7068    1.5567   -2.7012 H         1 UNK         0.0717 
     86 H86        27.7455    1.6248   -6.1509 H         1 UNK         0.0934 
     87 H87        29.0827    0.5306   -5.9815 H         1 UNK         0.0934 
     88 H88        27.5751   -0.8911   -4.4110 H         1 UNK         0.0739 
     89 H89        25.7486    1.2305   -4.8749 H         1 UNK         0.3093 
     90 H90        23.8087    1.1746   -3.5168 H         1 UNK         0.0818 
     91 H91        23.3925    1.1321   -6.0250 H         1 UNK         0.0819 
     92 H92        22.4884   -0.3638   -5.8448 H         1 UNK         0.0819 
     93 H93        21.8822    1.1320   -5.1367 H         1 UNK         0.0819 
     94 H94        23.1035   -1.5277   -3.0396 H         1 UNK         0.3041 
     95 H95        20.1960   -0.7849   -1.0201 H         1 UNK         0.0784 
     96 H96        19.5428   -1.8419   -3.1749 H         1 UNK         0.0793 
     97 H97        20.9701   -2.8652   -3.1385 H         1 UNK         0.0793 
     98 H98        19.7164   -3.0488   -1.9124 H         1 UNK         0.0793 
     99 H99        22.2247   -2.8657   -0.9846 H         1 UNK         0.3024 
    100 H100       23.9778   -1.5831    1.8147 H         1 UNK         0.1171 
    101 H101       22.0299   -3.9510    1.6428 H         1 UNK         0.0786 
    102 H102       23.3491   -3.7769    2.8003 H         1 UNK         0.0786 
    103 H103       21.9831   -2.6753    2.8522 H         1 UNK         0.0786 
    104 H104       24.0535   -4.0231    0.2120 H         1 UNK         0.2977 
    105 H105       28.6266   -2.2982   -5.7861 H         1 UNK         0.3127 
    106 H106       26.9844   -3.7173   -7.5528 H         1 UNK         0.0770 
    107 H107       30.0202   -3.8585   -7.1543 H         1 UNK         0.0814 
    108 H108       29.0462   -5.0851   -7.9509 H         1 UNK         0.0814 
    109 H109       28.8066   -4.7541   -6.2427 H         1 UNK         0.0814 
    110 H110       29.3048   -1.1471   -8.2904 H         1 UNK         0.2983 
    111 H111       28.1665   -0.7665  -10.8757 H         1 UNK         0.0947 
    112 H112       30.4210   -0.8947  -12.1026 H         1 UNK         0.0806 
    113 H113       29.7860   -2.4602  -11.6292 H         1 UNK         0.0806 
    114 H114       31.0826   -1.7247  -10.7013 H         1 UNK         0.0806 
    115 H115       29.0657    1.2224  -11.8422 H         1 UNK         0.3000 
    116 H116       29.2814    3.3181   -9.8888 H         1 UNK         0.0850 
    117 H117       29.5758    3.3570  -12.9500 H         1 UNK         0.0810 
    118 H118       29.3478    4.7711  -11.9324 H         1 UNK         0.0810 
    119 H119       28.0673    3.5801  -12.0633 H         1 UNK         0.0810 
    120 H120       30.9246    4.9930   -9.9234 H         1 UNK         0.3040 
    121 H121       32.9641    5.7772   -9.5200 H         1 UNK         0.0766 
    122 H122       33.7828    4.2203  -12.0312 H         1 UNK         0.0812 
    123 H123       33.0300    5.8146  -12.0218 H         1 UNK         0.0812 
    124 H124       34.6314    5.5934  -11.3373 H         1 UNK         0.0812 
    125 H125       32.3717    3.7120   -7.8952 H         1 UNK         0.3205 
    126 H126       33.0844    2.1901   -6.4526 H         1 UNK         0.0754 
    127 H127       35.3701    2.3984   -5.5450 H         1 UNK         0.0769 
    128 H128       34.7120    3.9959   -5.8525 H         1 UNK         0.0769 
    129 H129       35.8943    3.2998   -6.9600 H         1 UNK         0.0769 
    130 H130       32.7709    1.3072   -9.1491 H         1 UNK         0.2981 
    131 H131       32.9445   -0.4128  -10.4365 H         1 UNK         0.0541 
    132 H132       36.4214    0.9733  -11.4152 H         1 UNK         0.3459 
    133 H133       35.2935    1.7165  -10.3066 H         1 UNK         0.3459 
    134 H134       34.6245   -1.9574   -8.4045 H         1 UNK         0.0612 
    135 H135       33.7462   -2.6220   -9.7508 H         1 UNK         0.0612 
    136 H136       33.7977   -1.4784   -6.2477 H         1 UNK         0.0624 
    137 H137       33.3639   -3.1689   -6.1979 H         1 UNK         0.0624 
@<TRIPOS>BOND
     1    1    2 1    
     2    1   72 1    
     3    1   73 1    
     4    1   74 1    
     5    2    3 2    
     6    2    4 am   BACKBONE|DICT|INTERRES
     7    4    5 1    
     8    4   75 1    
     9    5    6 1    
    10    5   35 1    
    11    5   76 1    
    12    6    7 1    
    13    6   77 1    
    14    6   78 1    
    15    7    8 1    
    16    8    9 1    
    17    8   79 1    
    18    8   80 1    
    19    9   10 ar   
    20    9   14 ar   
    21   10   11 ar   
    22   10   81 1    
    23   11   12 ar   
    24   11   71 1    
    25   12   13 ar   
    26   12   82 1    
    27   13   14 ar   
    28   13   15 1    
    29   14   83 1    
    30   15   16 1    
    31   15   84 1    
    32   15   85 1    
    33   16   17 1    
    34   17   18 1    
    35   17   86 1    
    36   17   87 1    
    37   18   19 1    
    38   18   37 1    
    39   18   88 1    
    40   19   20 am   BACKBONE|DICT|INTERRES
    41   19   89 1    
    42   20   21 2    
    43   20   22 1    
    44   22   23 1    
    45   22   24 1    
    46   22   90 1    
    47   23   91 1    
    48   23   92 1    
    49   23   93 1    
    50   24   25 am   BACKBONE|DICT|INTERRES
    51   24   94 1    
    52   25   26 2    
    53   25   27 1    
    54   27   28 1    
    55   27   29 1    
    56   27   95 1    
    57   28   96 1    
    58   28   97 1    
    59   28   98 1    
    60   29   30 am   BACKBONE|DICT|INTERRES
    61   29   99 1    
    62   30   31 2    
    63   30   32 1    
    64   32   33 1    
    65   32   34 1    
    66   32  100 1    
    67   33  101 1    
    68   33  102 1    
    69   33  103 1    
    70   34   35 am   BACKBONE|DICT|INTERRES
    71   34  104 1    
    72   35   36 2    
    73   37   38 2    
    74   37   39 am   BACKBONE|DICT|INTERRES
    75   39   40 1    
    76   39  105 1    
    77   40   41 1    
    78   40   42 1    
    79   40  106 1    
    80   41  107 1    
    81   41  108 1    
    82   41  109 1    
    83   42   43 2    
    84   42   44 am   BACKBONE|DICT|INTERRES
    85   44   45 1    
    86   44  110 1    
    87   45   46 1    
    88   45   47 1    
    89   45  111 1    
    90   46  112 1    
    91   46  113 1    
    92   46  114 1    
    93   47   48 2    
    94   47   49 am   BACKBONE|DICT|INTERRES
    95   49   50 1    
    96   49  115 1    
    97   50   51 1    
    98   50   52 1    
    99   50  116 1    
   100   51  117 1    
   101   51  118 1    
   102   51  119 1    
   103   52   53 2    
   104   52   54 am   BACKBONE|DICT|INTERRES
   105   54   55 1    
   106   54  120 1    
   107   55   56 1    
   108   55   57 1    
   109   55  121 1    
   110   56  122 1    
   111   56  123 1    
   112   56  124 1    
   113   57   58 2    
   114   57   59 am   BACKBONE|DICT|INTERRES
   115   59   60 1    
   116   59  125 1    
   117   60   61 1    
   118   60   62 1    
   119   60  126 1    
   120   61  127 1    
   121   61  128 1    
   122   61  129 1    
   123   62   63 2    
   124   62   64 am   BACKBONE|DICT|INTERRES
   125   64   65 1    
   126   64  130 1    
   127   65   66 1    
   128   65   69 1    
   129   65  131 1    
   130   66   67 am   BACKBONE|DICT|INTERRES
   131   66   68 2    
   132   67  132 1    
   133   67  133 1    
   134   69   70 1    
   135   69  134 1    
   136   69  135 1    
   137   70   71 1    
   138   71  136 1    
   139   71  137 1    
@<TRIPOS>SUBSTRUCTURE
     1 UNK         1 GROUP             0       ****    0 ROOT    
