@<TRIPOS>MOLECULE
3R137
137   139    1
SMALL
USER_CHARGES


@<TRIPOS>ATOM
      1 CA         27.6103   -6.5002    0.4447 C.3       0 UNK        -0.2020 
      2 C          27.5190   -5.1084   -0.1615 C.2       0 UNK         0.4855 
      3 O          27.4328   -4.9839   -1.3822 O.2       0 UNK        -0.5197 
      4 N          27.5322   -4.0694    0.6852 N.am      1 UNK        -0.4892 
      5 CA         27.4815   -2.6292    0.3758 C.3       1 UNK         0.0835 
      6 C6         28.6377   -2.1198   -0.5226 C.3       12 UNK        -0.0855 
      7 S7         30.2977   -2.4121    0.1882 S.3       12 UNK        -0.2931 
      8 C8         31.0086   -3.6719   -0.9267 C.3       12 UNK         0.0378 
      9 C9         30.9666   -3.2413   -2.3866 C.ar      12 UNK        -0.0802 
     10 C10        31.7411   -2.1665   -2.8342 C.ar      12 UNK        -0.0944 
     11 C11        31.6368   -1.7177   -4.1549 C.ar      12 UNK        -0.0787 
     12 C12        30.7555   -2.3608   -5.0301 C.ar      12 UNK        -0.0862 
     13 C13        29.9964   -3.4532   -4.6002 C.ar      12 UNK        -0.0733 
     14 C14        30.1152   -3.8953   -3.2814 C.ar      12 UNK        -0.0832 
     15 C15        29.0402   -4.1516   -5.5530 C.3       12 UNK         0.0240 
     16 S16        27.3021   -3.8396   -5.0980 S.3       12 UNK        -0.2522 
     17 C17        26.5350   -3.6842   -6.7480 C.3       12 UNK        -0.0967 
     18 CA         26.2737   -2.2370   -7.2502 C.3       5 UNK         0.0660 
     19 N          24.9950   -1.6846   -6.7961 N.am      5 UNK        -0.4015 
     20 C          24.3546   -0.6992   -7.4445 C.2       4 UNK         0.4946 
     21 O          24.7839   -0.1652   -8.4682 O.2       4 UNK        -0.5353 
     22 CA         23.0315   -0.2047   -6.8400 C.3       4 UNK         0.0277 
     23 CB         21.8984   -1.2106   -7.1010 C.3       4 UNK        -0.1981 
     24 N          23.1336    0.0678   -5.4063 N.am      4 UNK        -0.4209 
     25 C          23.8999    1.0283   -4.8695 C.2       3 UNK         0.4942 
     26 O          24.5800    1.8125   -5.5288 O.2       3 UNK        -0.5208 
     27 CA         23.9356    1.1138   -3.3346 C.3       3 UNK         0.0250 
     28 CB         22.8360    2.0580   -2.8230 C.3       3 UNK        -0.1990 
     29 N          23.8204   -0.1839   -2.6597 N.am      3 UNK        -0.4232 
     30 C          24.6777   -1.2026   -2.8113 C.2       2 UNK         0.4993 
     31 O          25.6271   -1.1899   -3.5989 O.2       2 UNK        -0.5286 
     32 CA         24.4126   -2.4556   -1.9622 C.3       2 UNK         0.0209 
     33 CB         23.9609   -3.6297   -2.8456 C.3       2 UNK        -0.1931 
     34 N          25.6142   -2.8375   -1.2227 N.am      2 UNK        -0.4546 
     35 C          26.1222   -2.1604   -0.1859 C.2       1 UNK         0.5154 
     36 O          25.5584   -1.1948    0.3323 O.2       1 UNK        -0.5181 
     37 C          27.4310   -1.2459   -7.0088 C.2       5 UNK         0.5014 
     38 O          28.3090   -1.1382   -7.8631 O.2       5 UNK        -0.5248 
     39 N          27.3879   -0.5036   -5.8912 N.am      6 UNK        -0.4434 
     40 CA         28.3488    0.5528   -5.5638 C.3       6 UNK         0.0363 
     41 CB         28.1403    1.0012   -4.1100 C.3       6 UNK        -0.1936 
     42 C          28.2983    1.7551   -6.5257 C.2       6 UNK         0.5081 
     43 O          29.3109    2.4354   -6.6831 O.2       6 UNK        -0.5248 
     44 N          27.1420    1.9990   -7.1572 N.am      7 UNK        -0.4718 
     45 CA         26.9876    2.9823   -8.2299 C.3       7 UNK         0.0273 
     46 CB         25.5185    3.4270   -8.3121 C.3       7 UNK        -0.1935 
     47 C          27.4650    2.4397   -9.5882 C.2       7 UNK         0.5018 
     48 O          28.0266    3.2039  -10.3738 O.2       7 UNK        -0.5186 
     49 N          27.2100    1.1504   -9.8551 N.am      8 UNK        -0.4240 
     50 CA         27.5491    0.4823  -11.1142 C.3       8 UNK         0.0235 
     51 CB         26.7153   -0.8018  -11.2526 C.3       8 UNK        -0.2000 
     52 C          29.0478    0.1671  -11.2606 C.2       8 UNK         0.4941 
     53 O          29.5880    0.3198  -12.3577 O.2       8 UNK        -0.5273 
     54 N          29.6823   -0.2976  -10.1764 N.am      9 UNK        -0.4262 
     55 CA         31.0976   -0.6722  -10.1269 C.3       9 UNK         0.0264 
     56 CB         31.3553   -1.4496   -8.8258 C.3       9 UNK        -0.1955 
     57 C          32.0352    0.5434  -10.1973 C.2       9 UNK         0.5031 
     58 O          31.6354    1.6579   -9.8542 O.2       9 UNK        -0.5390 
     59 N          33.2993    0.2908  -10.5660 N.am      10 UNK        -0.4204 
     60 CA         34.3786    1.2873  -10.6003 C.3       10 UNK         0.0237 
     61 CB         35.6414    0.6524  -11.2051 C.3       10 UNK        -0.1985 
     62 C          34.6933    1.9125   -9.2268 C.2       10 UNK         0.4970 
     63 O          35.1063    3.0715   -9.1743 O.2       10 UNK        -0.4914 
     64 N          34.4696    1.1479   -8.1503 N.am      11 UNK        -0.4285 
     65 CA         34.5007    1.6203   -6.7590 C.3       11 UNK         0.1007 
     66 C          33.2422    2.4266   -6.3178 C.2       11 UNK         0.5703 
     67 N          32.2063    2.5537   -7.1369 N.am      11 UNK        -0.7361 
     68 O          33.2050    2.9393   -5.2019 O.2       11 UNK        -0.4986 
     69 C69        34.8321    0.4666   -5.7723 C.3       12 UNK        -0.0947 
     70 S70        33.7039   -0.9710   -5.8538 S.3       12 UNK        -0.2240 
     71 C71        32.4443   -0.5142   -4.6198 C.3       12 UNK         0.0194 
     72 H72        28.4879   -7.0185    0.0592 H         1 UNK         0.0906 
     73 H73        27.6847   -6.4701    1.5316 H         1 UNK         0.0906 
     74 H74        26.7277   -7.0822    0.1806 H         1 UNK         0.0906 
     75 H75        27.5822   -4.2698    1.6749 H         1 UNK         0.3140 
     76 H76        27.5881   -2.1299    1.3407 H         1 UNK         0.1085 
     77 H77        28.5579   -2.5539   -1.5184 H         1 UNK         0.0836 
     78 H78        28.5478   -1.0420   -0.6729 H         1 UNK         0.0836 
     79 H79        32.0431   -3.8600   -0.6364 H         1 UNK         0.0731 
     80 H80        30.4750   -4.6126   -0.7837 H         1 UNK         0.0731 
     81 H81        32.3991   -1.6605   -2.1408 H         1 UNK         0.1312 
     82 H82        30.6585   -2.0078   -6.0464 H         1 UNK         0.1406 
     83 H83        29.5081   -4.7247   -2.9441 H         1 UNK         0.1631 
     84 H84        29.2310   -3.8167   -6.5738 H         1 UNK         0.0717 
     85 H85        29.2263   -5.2263   -5.5421 H         1 UNK         0.0717 
     86 H86        27.1605   -4.2072   -7.4733 H         1 UNK         0.0934 
     87 H87        25.6006   -4.2475   -6.7385 H         1 UNK         0.0934 
     88 H88        26.1886   -2.3267   -8.3354 H         1 UNK         0.0739 
     89 H89        24.6284   -2.0337   -5.9226 H         1 UNK         0.3093 
     90 H90        22.7737    0.7325   -7.3386 H         1 UNK         0.0818 
     91 H91        20.9379   -0.8214   -6.7628 H         1 UNK         0.0819 
     92 H92        21.8025   -1.4200   -8.1675 H         1 UNK         0.0819 
     93 H93        22.0713   -2.1620   -6.5966 H         1 UNK         0.0819 
     94 H94        22.6022   -0.5232   -4.7842 H         1 UNK         0.3041 
     95 H95        24.9021    1.5386   -3.0567 H         1 UNK         0.0784 
     96 H96        22.9138    3.0387   -3.2951 H         1 UNK         0.0793 
     97 H97        21.8383    1.6721   -3.0366 H         1 UNK         0.0793 
     98 H98        22.9141    2.2131   -1.7467 H         1 UNK         0.0793 
     99 H99        23.0676   -0.2760   -1.9925 H         1 UNK         0.3024 
    100 H100       23.6209   -2.2431   -1.2402 H         1 UNK         0.1171 
    101 H101       23.7395   -4.5130   -2.2464 H         1 UNK         0.0786 
    102 H102       23.0559   -3.3784   -3.4001 H         1 UNK         0.0786 
    103 H103       24.7251   -3.9047   -3.5730 H         1 UNK         0.0786 
    104 H104       26.1655   -3.6116   -1.5867 H         1 UNK         0.2977 
    105 H105       26.6712   -0.7014   -5.1964 H         1 UNK         0.3127 
    106 H106       29.3483    0.1230   -5.6445 H         1 UNK         0.0770 
    107 H107       27.1518    1.4366   -3.9644 H         1 UNK         0.0814 
    108 H108       28.8768    1.7534   -3.8246 H         1 UNK         0.0814 
    109 H109       28.2450    0.1638   -3.4192 H         1 UNK         0.0814 
    110 H110       26.3229    1.4587   -6.9061 H         1 UNK         0.2983 
    111 H111       27.5916    3.8615   -7.9939 H         1 UNK         0.0947 
    112 H112       25.3773    4.1667   -9.1011 H         1 UNK         0.0806 
    113 H113       25.1914    3.8828   -7.3774 H         1 UNK         0.0806 
    114 H114       24.8526    2.5898   -8.5246 H         1 UNK         0.0806 
    115 H115       26.6966    0.6068   -9.1713 H         1 UNK         0.3000 
    116 H116       27.2724    1.1498  -11.9334 H         1 UNK         0.0850 
    117 H117       26.9063   -1.2894  -12.2095 H         1 UNK         0.0810 
    118 H118       25.6470   -0.5896  -11.2034 H         1 UNK         0.0810 
    119 H119       26.9507   -1.5209  -10.4679 H         1 UNK         0.0810 
    120 H120       29.1530   -0.4232   -9.3148 H         1 UNK         0.3040 
    121 H121       31.3056   -1.3246  -10.9775 H         1 UNK         0.0766 
    122 H122       30.7000   -2.3170   -8.7429 H         1 UNK         0.0812 
    123 H123       31.1878   -0.8176   -7.9525 H         1 UNK         0.0812 
    124 H124       32.3813   -1.8155   -8.7733 H         1 UNK         0.0812 
    125 H125       33.5491   -0.6530  -10.8265 H         1 UNK         0.3205 
    126 H126       34.0549    2.0975  -11.2572 H         1 UNK         0.0754 
    127 H127       36.4525    1.3796  -11.2665 H         1 UNK         0.0769 
    128 H128       35.4586    0.2894  -12.2168 H         1 UNK         0.0769 
    129 H129       36.0002   -0.1855  -10.6058 H         1 UNK         0.0769 
    130 H130       34.1309    0.2072   -8.2821 H         1 UNK         0.2981 
    131 H131       35.3251    2.3316   -6.6822 H         1 UNK         0.0541 
    132 H132       31.3575    2.9932   -6.8065 H         1 UNK         0.3459 
    133 H133       32.2099    2.1631   -8.0729 H         1 UNK         0.3459 
    134 H134       34.8867    0.8338   -4.7460 H         1 UNK         0.0612 
    135 H135       35.8339    0.0949   -5.9920 H         1 UNK         0.0612 
    136 H136       31.7687    0.2252   -5.0510 H         1 UNK         0.0624 
    137 H137       32.9266   -0.0322   -3.7682 H         1 UNK         0.0624 
@<TRIPOS>BOND
     1    1    2 1    
     2    1   72 1    
     3    1   73 1    
     4    1   74 1    
     5    2    3 2    
     6    2    4 am   BACKBONE|DICT|INTERRES
     7    4    5 1    
     8    4   75 1    
     9    5    6 1    
    10    5   35 1    
    11    5   76 1    
    12    6    7 1    
    13    6   77 1    
    14    6   78 1    
    15    7    8 1    
    16    8    9 1    
    17    8   79 1    
    18    8   80 1    
    19    9   10 ar   
    20    9   14 ar   
    21   10   11 ar   
    22   10   81 1    
    23   11   12 ar   
    24   11   71 1    
    25   12   13 ar   
    26   12   82 1    
    27   13   14 ar   
    28   13   15 1    
    29   14   83 1    
    30   15   16 1    
    31   15   84 1    
    32   15   85 1    
    33   16   17 1    
    34   17   18 1    
    35   17   86 1    
    36   17   87 1    
    37   18   19 1    
    38   18   37 1    
    39   18   88 1    
    40   19   20 am   BACKBONE|DICT|INTERRES
    41   19   89 1    
    42   20   21 2    
    43   20   22 1    
    44   22   23 1    
    45   22   24 1    
    46   22   90 1    
    47   23   91 1    
    48   23   92 1    
    49   23   93 1    
    50   24   25 am   BACKBONE|DICT|INTERRES
    51   24   94 1    
    52   25   26 2    
    53   25   27 1    
    54   27   28 1    
    55   27   29 1    
    56   27   95 1    
    57   28   96 1    
    58   28   97 1    
    59   28   98 1    
    60   29   30 am   BACKBONE|DICT|INTERRES
    61   29   99 1    
    62   30   31 2    
    63   30   32 1    
    64   32   33 1    
    65   32   34 1    
    66   32  100 1    
    67   33  101 1    
    68   33  102 1    
    69   33  103 1    
    70   34   35 am   BACKBONE|DICT|INTERRES
    71   34  104 1    
    72   35   36 2    
    73   37   38 2    
    74   37   39 am   BACKBONE|DICT|INTERRES
    75   39   40 1    
    76   39  105 1    
    77   40   41 1    
    78   40   42 1    
    79   40  106 1    
    80   41  107 1    
    81   41  108 1    
    82   41  109 1    
    83   42   43 2    
    84   42   44 am   BACKBONE|DICT|INTERRES
    85   44   45 1    
    86   44  110 1    
    87   45   46 1    
    88   45   47 1    
    89   45  111 1    
    90   46  112 1    
    91   46  113 1    
    92   46  114 1    
    93   47   48 2    
    94   47   49 am   BACKBONE|DICT|INTERRES
    95   49   50 1    
    96   49  115 1    
    97   50   51 1    
    98   50   52 1    
    99   50  116 1    
   100   51  117 1    
   101   51  118 1    
   102   51  119 1    
   103   52   53 2    
   104   52   54 am   BACKBONE|DICT|INTERRES
   105   54   55 1    
   106   54  120 1    
   107   55   56 1    
   108   55   57 1    
   109   55  121 1    
   110   56  122 1    
   111   56  123 1    
   112   56  124 1    
   113   57   58 2    
   114   57   59 am   BACKBONE|DICT|INTERRES
   115   59   60 1    
   116   59  125 1    
   117   60   61 1    
   118   60   62 1    
   119   60  126 1    
   120   61  127 1    
   121   61  128 1    
   122   61  129 1    
   123   62   63 2    
   124   62   64 am   BACKBONE|DICT|INTERRES
   125   64   65 1    
   126   64  130 1    
   127   65   66 1    
   128   65   69 1    
   129   65  131 1    
   130   66   67 am   BACKBONE|DICT|INTERRES
   131   66   68 2    
   132   67  132 1    
   133   67  133 1    
   134   69   70 1    
   135   69  134 1    
   136   69  135 1    
   137   70   71 1    
   138   71  136 1    
   139   71  137 1    
@<TRIPOS>SUBSTRUCTURE
     1 UNK         1 GROUP             0       ****    0 ROOT    
