@<TRIPOS>MOLECULE
3R137
137   139    1
SMALL
USER_CHARGES


@<TRIPOS>ATOM
      1 CA         28.2978   -5.2442    0.4492 C.3       0 UNK        -0.2020 
      2 C          27.5880   -3.9218    0.6982 C.2       0 UNK         0.4855 
      3 O          26.8080   -3.8132    1.6443 O.2       0 UNK        -0.5197 
      4 N          27.8546   -2.9158   -0.1453 N.am      1 UNK        -0.4892 
      5 CA         27.2912   -1.5597   -0.0555 C.3       1 UNK         0.0835 
      6 C6         27.9998   -0.5628   -1.0102 C.3       12 UNK        -0.0855 
      7 S7         29.8172   -0.5308   -0.8387 S.3       12 UNK        -0.2931 
      8 C8         30.3248   -0.0123   -2.5178 C.3       12 UNK         0.0378 
      9 C9         30.6062   -1.1650   -3.4845 C.ar      12 UNK        -0.0802 
     10 C10        31.6450   -1.0367   -4.4146 C.ar      12 UNK        -0.0944 
     11 C11        31.9447   -2.0741   -5.3037 C.ar      12 UNK        -0.0787 
     12 C12        31.1954   -3.2529   -5.2579 C.ar      12 UNK        -0.0862 
     13 C13        30.1400   -3.3894   -4.3540 C.ar      12 UNK        -0.0733 
     14 C14        29.8478   -2.3425   -3.4770 C.ar      12 UNK        -0.0832 
     15 C15        29.3356   -4.6795   -4.3138 C.3       12 UNK         0.0240 
     16 S16        28.1574   -4.7906   -5.6951 S.3       12 UNK        -0.2522 
     17 C17        26.8305   -3.6556   -5.1708 C.3       12 UNK        -0.0967 
     18 CA         26.4090   -2.6853   -6.3067 C.3       5 UNK         0.0660 
     19 N          24.9683   -2.4323   -6.2854 N.am      5 UNK        -0.4015 
     20 C          24.2147   -2.1855   -7.3652 C.2       4 UNK         0.4946 
     21 O          24.6406   -2.2091   -8.5201 O.2       4 UNK        -0.5353 
     22 CA         22.7290   -1.8570   -7.1254 C.3       4 UNK         0.0277 
     23 CB         21.8656   -3.1157   -7.3099 C.3       4 UNK        -0.1981 
     24 N          22.4600   -1.2769   -5.8063 N.am      4 UNK        -0.4209 
     25 C          22.8615   -0.0583   -5.4191 C.2       3 UNK         0.4942 
     26 O          23.4842    0.7194   -6.1414 O.2       3 UNK        -0.5208 
     27 CA         22.5618    0.3375   -3.9624 C.3       3 UNK         0.0250 
     28 CB         21.1411    0.9119   -3.8436 C.3       3 UNK        -0.1990 
     29 N          22.7402   -0.7426   -2.9807 N.am      3 UNK        -0.4232 
     30 C          23.8625   -1.4556   -2.8121 C.2       2 UNK         0.4993 
     31 O          24.8440   -1.3795   -3.5557 O.2       2 UNK        -0.5286 
     32 CA         23.8972   -2.4511   -1.6433 C.3       2 UNK         0.0209 
     33 CB         23.5200   -3.8591   -2.1306 C.3       2 UNK        -0.1931 
     34 N          25.2428   -2.4870   -1.0677 N.am      2 UNK        -0.4546 
     35 C          25.7702   -1.5059   -0.3209 C.2       1 UNK         0.5154 
     36 O          25.1138   -0.5607    0.1201 O.2       1 UNK        -0.5181 
     37 C          27.1697   -1.3466   -6.2598 C.2       5 UNK         0.5014 
     38 O          28.0650   -1.1227   -7.0743 O.2       5 UNK        -0.5248 
     39 N          26.7459   -0.4499   -5.3537 N.am      6 UNK        -0.4434 
     40 CA         27.2726    0.9069   -5.1714 C.3       6 UNK         0.0363 
     41 CB         26.5409    1.5850   -4.0030 C.3       6 UNK        -0.1936 
     42 C          27.1884    1.7912   -6.4270 C.2       6 UNK         0.5081 
     43 O          28.0251    2.6778   -6.5918 O.2       6 UNK        -0.5248 
     44 N          26.2207    1.5127   -7.3119 N.am      7 UNK        -0.4718 
     45 CA         26.0603    2.1343   -8.6303 C.3       7 UNK         0.0273 
     46 CB         24.8025    1.5605   -9.3022 C.3       7 UNK        -0.1935 
     47 C          27.2806    1.9877   -9.5633 C.2       7 UNK         0.5018 
     48 O          27.4447    2.8169  -10.4589 O.2       7 UNK        -0.5186 
     49 N          28.1235    0.9683   -9.3356 N.am      8 UNK        -0.4240 
     50 CA         29.3965    0.7740  -10.0363 C.3       8 UNK         0.0235 
     51 CB         29.7547   -0.7196  -10.0162 C.3       8 UNK        -0.2000 
     52 C          30.5475    1.6330   -9.4702 C.2       8 UNK         0.4941 
     53 O          31.6298    1.6351  -10.0615 O.2       8 UNK        -0.5273 
     54 N          30.3091    2.3535   -8.3614 N.am      9 UNK        -0.4262 
     55 CA         31.2243    3.2721   -7.6786 C.3       9 UNK         0.0264 
     56 CB         31.4481    4.5433   -8.5302 C.3       9 UNK        -0.1955 
     57 C          32.5193    2.5681   -7.2355 C.2       9 UNK         0.5031 
     58 O          32.4735    1.7509   -6.3163 O.2       9 UNK        -0.5390 
     59 N          33.6431    2.8933   -7.8864 N.am      10 UNK        -0.4204 
     60 CA         34.9538    2.2876   -7.6460 C.3       10 UNK         0.0237 
     61 CB         36.0423    3.2299   -8.1881 C.3       10 UNK        -0.1985 
     62 C          35.1074    0.8804   -8.2545 C.2       10 UNK         0.4970 
     63 O          36.0666    0.1931   -7.9021 O.2       10 UNK        -0.4914 
     64 N          34.1977    0.4856   -9.1587 N.am      11 UNK        -0.4285 
     65 CA         34.2005   -0.7930   -9.8926 C.3       11 UNK         0.1007 
     66 C          35.3745   -0.9568  -10.9074 C.2       11 UNK         0.5703 
     67 N          36.0537    0.1110  -11.3108 N.am      11 UNK        -0.7361 
     68 O          35.6575   -2.0610  -11.3672 O.2       11 UNK        -0.4986 
     69 C69        34.0226   -2.0337   -8.9688 C.3       12 UNK        -0.0947 
     70 S70        32.4710   -1.9797   -8.0147 S.3       12 UNK        -0.2240 
     71 C71        33.0849   -1.9372   -6.3038 C.3       12 UNK         0.0194 
     72 H72        27.5681   -6.0341    0.2733 H         1 UNK         0.0906 
     73 H73        28.8938   -5.5190    1.3191 H         1 UNK         0.0906 
     74 H74        28.9613   -5.1971   -0.4142 H         1 UNK         0.0906 
     75 H75        28.5585   -3.0468   -0.8554 H         1 UNK         0.3140 
     76 H76        27.4440   -1.2131    0.9692 H         1 UNK         0.1085 
     77 H77        27.6396    0.4517   -0.8259 H         1 UNK         0.0836 
     78 H78        27.7411   -0.7842   -2.0471 H         1 UNK         0.0836 
     79 H79        29.5699    0.6475   -2.9449 H         1 UNK         0.0731 
     80 H80        31.2247    0.5950   -2.4077 H         1 UNK         0.0731 
     81 H81        32.2273   -0.1257   -4.4461 H         1 UNK         0.1312 
     82 H82        31.4249   -4.0602   -5.9401 H         1 UNK         0.1406 
     83 H83        29.0332   -2.4587   -2.7824 H         1 UNK         0.1631 
     84 H84        28.8026   -4.7839   -3.3674 H         1 UNK         0.0717 
     85 H85        30.0187   -5.5284   -4.3700 H         1 UNK         0.0717 
     86 H86        25.9900   -4.2913   -4.8871 H         1 UNK         0.0934 
     87 H87        27.1047   -3.1227   -4.2587 H         1 UNK         0.0934 
     88 H88        26.6456   -3.1550   -7.2644 H         1 UNK         0.0739 
     89 H89        24.5552   -2.3159   -5.3682 H         1 UNK         0.3093 
     90 H90        22.4330   -1.1254   -7.8807 H         1 UNK         0.0818 
     91 H91        22.0234   -3.5555   -8.2958 H         1 UNK         0.0819 
     92 H92        22.1024   -3.8816   -6.5702 H         1 UNK         0.0819 
     93 H93        20.8033   -2.8846   -7.2278 H         1 UNK         0.0819 
     94 H94        21.9518   -1.8478   -5.1464 H         1 UNK         0.3041 
     95 H95        23.2646    1.1282   -3.6944 H         1 UNK         0.0784 
     96 H96        20.9894    1.7282   -4.5516 H         1 UNK         0.0793 
     97 H97        20.3801    0.1577   -4.0480 H         1 UNK         0.0793 
     98 H98        20.9569    1.3140   -2.8471 H         1 UNK         0.0793 
     99 H99        21.9750   -0.8886   -2.3376 H         1 UNK         0.3024 
    100 H100       23.1903   -2.1338   -0.8732 H         1 UNK         0.1171 
    101 H101       22.5107   -3.8734   -2.5442 H         1 UNK         0.0786 
    102 H102       24.1967   -4.2144   -2.9090 H         1 UNK         0.0786 
    103 H103       23.5432   -4.5798   -1.3129 H         1 UNK         0.0786 
    104 H104       25.8611   -3.2122   -1.3982 H         1 UNK         0.2977 
    105 H105       26.0025   -0.7303   -4.7138 H         1 UNK         0.3127 
    106 H106       28.3290    0.8077   -4.9173 H         1 UNK         0.0770 
    107 H107       25.4926    1.7644   -4.2418 H         1 UNK         0.0814 
    108 H108       26.9912    2.5508   -3.7703 H         1 UNK         0.0814 
    109 H109       26.5757    0.9828   -3.0969 H         1 UNK         0.0814 
    110 H110       25.5259    0.8239   -7.0494 H         1 UNK         0.2983 
    111 H111       25.9078    3.2033   -8.4685 H         1 UNK         0.0947 
    112 H112       24.8838    0.4833   -9.4541 H         1 UNK         0.0806 
    113 H113       24.6363    2.0171  -10.2789 H         1 UNK         0.0806 
    114 H114       23.9112    1.7480   -8.7030 H         1 UNK         0.0806 
    115 H115       27.9298    0.3300   -8.5692 H         1 UNK         0.3000 
    116 H116       29.2707    1.0691  -11.0802 H         1 UNK         0.0850 
    117 H117       30.6912   -0.9088  -10.5423 H         1 UNK         0.0810 
    118 H118       28.9838   -1.3195  -10.4998 H         1 UNK         0.0810 
    119 H119       29.8723   -1.0872   -8.9973 H         1 UNK         0.0810 
    120 H120       29.3982    2.2713   -7.9189 H         1 UNK         0.3040 
    121 H121       30.7197    3.5791   -6.7611 H         1 UNK         0.0766 
    122 H122       31.8881    4.3236   -9.5035 H         1 UNK         0.0812 
    123 H123       32.1005    5.2524   -8.0186 H         1 UNK         0.0812 
    124 H124       30.5036    5.0568   -8.7108 H         1 UNK         0.0812 
    125 H125       33.5792    3.5629   -8.6397 H         1 UNK         0.3205 
    126 H126       35.0957    2.1889   -6.5676 H         1 UNK         0.0754 
    127 H127       37.0387    2.8286   -7.9967 H         1 UNK         0.0769 
    128 H128       35.9937    4.2085   -7.7100 H         1 UNK         0.0769 
    129 H129       35.9518    3.3767   -9.2651 H         1 UNK         0.0769 
    130 H130       33.4219    1.1007   -9.3845 H         1 UNK         0.2981 
    131 H131       33.3155   -0.7471  -10.5278 H         1 UNK         0.0541 
    132 H132       35.8231    1.0258  -10.9592 H         1 UNK         0.3459 
    133 H133       36.8027   -0.0028  -11.9753 H         1 UNK         0.3459 
    134 H134       34.8745   -2.1456   -8.2970 H         1 UNK         0.0612 
    135 H135       33.9879   -2.9491   -9.5615 H         1 UNK         0.0612 
    136 H136       33.6334   -1.0069   -6.1475 H         1 UNK         0.0624 
    137 H137       33.7933   -2.7524   -6.1505 H         1 UNK         0.0624 
@<TRIPOS>BOND
     1    1    2 1    
     2    1   72 1    
     3    1   73 1    
     4    1   74 1    
     5    2    3 2    
     6    2    4 am   BACKBONE|DICT|INTERRES
     7    4    5 1    
     8    4   75 1    
     9    5    6 1    
    10    5   35 1    
    11    5   76 1    
    12    6    7 1    
    13    6   77 1    
    14    6   78 1    
    15    7    8 1    
    16    8    9 1    
    17    8   79 1    
    18    8   80 1    
    19    9   10 ar   
    20    9   14 ar   
    21   10   11 ar   
    22   10   81 1    
    23   11   12 ar   
    24   11   71 1    
    25   12   13 ar   
    26   12   82 1    
    27   13   14 ar   
    28   13   15 1    
    29   14   83 1    
    30   15   16 1    
    31   15   84 1    
    32   15   85 1    
    33   16   17 1    
    34   17   18 1    
    35   17   86 1    
    36   17   87 1    
    37   18   19 1    
    38   18   37 1    
    39   18   88 1    
    40   19   20 am   BACKBONE|DICT|INTERRES
    41   19   89 1    
    42   20   21 2    
    43   20   22 1    
    44   22   23 1    
    45   22   24 1    
    46   22   90 1    
    47   23   91 1    
    48   23   92 1    
    49   23   93 1    
    50   24   25 am   BACKBONE|DICT|INTERRES
    51   24   94 1    
    52   25   26 2    
    53   25   27 1    
    54   27   28 1    
    55   27   29 1    
    56   27   95 1    
    57   28   96 1    
    58   28   97 1    
    59   28   98 1    
    60   29   30 am   BACKBONE|DICT|INTERRES
    61   29   99 1    
    62   30   31 2    
    63   30   32 1    
    64   32   33 1    
    65   32   34 1    
    66   32  100 1    
    67   33  101 1    
    68   33  102 1    
    69   33  103 1    
    70   34   35 am   BACKBONE|DICT|INTERRES
    71   34  104 1    
    72   35   36 2    
    73   37   38 2    
    74   37   39 am   BACKBONE|DICT|INTERRES
    75   39   40 1    
    76   39  105 1    
    77   40   41 1    
    78   40   42 1    
    79   40  106 1    
    80   41  107 1    
    81   41  108 1    
    82   41  109 1    
    83   42   43 2    
    84   42   44 am   BACKBONE|DICT|INTERRES
    85   44   45 1    
    86   44  110 1    
    87   45   46 1    
    88   45   47 1    
    89   45  111 1    
    90   46  112 1    
    91   46  113 1    
    92   46  114 1    
    93   47   48 2    
    94   47   49 am   BACKBONE|DICT|INTERRES
    95   49   50 1    
    96   49  115 1    
    97   50   51 1    
    98   50   52 1    
    99   50  116 1    
   100   51  117 1    
   101   51  118 1    
   102   51  119 1    
   103   52   53 2    
   104   52   54 am   BACKBONE|DICT|INTERRES
   105   54   55 1    
   106   54  120 1    
   107   55   56 1    
   108   55   57 1    
   109   55  121 1    
   110   56  122 1    
   111   56  123 1    
   112   56  124 1    
   113   57   58 2    
   114   57   59 am   BACKBONE|DICT|INTERRES
   115   59   60 1    
   116   59  125 1    
   117   60   61 1    
   118   60   62 1    
   119   60  126 1    
   120   61  127 1    
   121   61  128 1    
   122   61  129 1    
   123   62   63 2    
   124   62   64 am   BACKBONE|DICT|INTERRES
   125   64   65 1    
   126   64  130 1    
   127   65   66 1    
   128   65   69 1    
   129   65  131 1    
   130   66   67 am   BACKBONE|DICT|INTERRES
   131   66   68 2    
   132   67  132 1    
   133   67  133 1    
   134   69   70 1    
   135   69  134 1    
   136   69  135 1    
   137   70   71 1    
   138   71  136 1    
   139   71  137 1    
@<TRIPOS>SUBSTRUCTURE
     1 UNK         1 GROUP             0       ****    0 ROOT    
