@<TRIPOS>MOLECULE
3R137
137   139    1
SMALL
USER_CHARGES


@<TRIPOS>ATOM
      1 CA         27.8797   -5.6320    0.9787 C.3       0 UNK        -0.2020 
      2 C          27.9310   -4.1151    0.8758 C.2       0 UNK         0.4855 
      3 O          27.3885   -3.4244    1.7385 O.2       0 UNK        -0.5197 
      4 N          28.5824   -3.5938   -0.1723 N.am      1 UNK        -0.4892 
      5 CA         28.7245   -2.1561   -0.4453 C.3       1 UNK         0.0835 
      6 C6         29.8213   -1.8742   -1.5008 C.3       12 UNK        -0.0855 
      7 S7         31.4867   -2.3653   -0.9274 S.3       12 UNK        -0.2931 
      8 C8         31.7266   -4.0221   -1.6524 C.3       12 UNK         0.0378 
      9 C9         31.7312   -4.0055   -3.1745 C.ar      12 UNK        -0.0802 
     10 C10        32.8623   -3.5717   -3.8731 C.ar      12 UNK        -0.0944 
     11 C11        32.8757   -3.5758   -5.2711 C.ar      12 UNK        -0.0787 
     12 C12        31.7380   -3.9943   -5.9691 C.ar      12 UNK        -0.0862 
     13 C13        30.5965   -4.4206   -5.2829 C.ar      12 UNK        -0.0733 
     14 C14        30.6104   -4.4458   -3.8850 C.ar      12 UNK        -0.0832 
     15 C15        29.3496   -4.8389   -6.0589 C.3       12 UNK         0.0240 
     16 S16        27.8184   -4.0456   -5.4520 S.3       12 UNK        -0.2522 
     17 C17        28.2523   -2.2775   -5.5426 C.3       12 UNK        -0.0967 
     18 CA         27.5151   -1.5268   -6.6741 C.3       5 UNK         0.0660 
     19 N          26.0583   -1.5401   -6.5238 N.am      5 UNK        -0.4015 
     20 C          25.1941   -1.1436   -7.4695 C.2       4 UNK         0.4946 
     21 O          25.5306   -0.7687   -8.5921 O.2       4 UNK        -0.5353 
     22 CA         23.7065   -1.1078   -7.0823 C.3       4 UNK         0.0277 
     23 CB         23.0889   -2.5126   -7.1676 C.3       4 UNK        -0.1981 
     24 N          23.4889   -0.5505   -5.7455 N.am      4 UNK        -0.4209 
     25 C          23.7834    0.7093   -5.3900 C.2       3 UNK         0.4942 
     26 O          24.1894    1.5641   -6.1754 O.2       3 UNK        -0.5208 
     27 CA         23.6540    1.0615   -3.8971 C.3       3 UNK         0.0250 
     28 CB         22.2454    1.5939   -3.5900 C.3       3 UNK        -0.1990 
     29 N          23.9640   -0.0576   -2.9996 N.am      3 UNK        -0.4232 
     30 C          25.1394   -0.7011   -2.9522 C.2       2 UNK         0.4993 
     31 O          26.1029   -0.4222   -3.6709 O.2       2 UNK        -0.5286 
     32 CA         25.2010   -1.9132   -2.0078 C.3       2 UNK         0.0209 
     33 CB         24.5622   -3.1388   -2.6842 C.3       2 UNK        -0.1931 
     34 N          26.5590   -2.2724   -1.5951 N.am      2 UNK        -0.4546 
     35 C          27.3816   -1.5136   -0.8560 C.2       1 UNK         0.5154 
     36 O          27.1033   -0.3805   -0.4597 O.2       1 UNK        -0.5181 
     37 C          28.0454   -0.0880   -6.7716 C.2       5 UNK         0.5014 
     38 O          28.8889    0.1833   -7.6248 O.2       5 UNK        -0.5248 
     39 N          27.5443    0.8104   -5.9119 N.am      6 UNK        -0.4434 
     40 CA         27.8953    2.2340   -5.9164 C.3       6 UNK         0.0363 
     41 CB         27.2418    2.9311   -4.7141 C.3       6 UNK        -0.1936 
     42 C          27.5222    2.9451   -7.2311 C.2       6 UNK         0.5081 
     43 O          28.2490    3.8405   -7.6587 O.2       6 UNK        -0.5248 
     44 N          26.4169    2.5241   -7.8585 N.am      7 UNK        -0.4718 
     45 CA         25.9874    2.9888   -9.1744 C.3       7 UNK         0.0273 
     46 CB         24.4863    2.7064   -9.3555 C.3       7 UNK        -0.1935 
     47 C          26.8088    2.3630  -10.3145 C.2       7 UNK         0.5018 
     48 O          27.3566    3.1011  -11.1342 O.2       7 UNK        -0.5186 
     49 N          26.8457    1.0239  -10.3772 N.am      8 UNK        -0.4240 
     50 CA         27.3751    0.2816  -11.5245 C.3       8 UNK         0.0235 
     51 CB         26.7119   -1.1042  -11.5902 C.3       8 UNK        -0.2000 
     52 C          28.9033    0.1357  -11.5288 C.2       8 UNK         0.4941 
     53 O          29.5116    0.2726  -12.5913 O.2       8 UNK        -0.5273 
     54 N          29.4921   -0.1775  -10.3682 N.am      9 UNK        -0.4262 
     55 CA         30.9132   -0.5102  -10.2240 C.3       9 UNK         0.0264 
     56 CB         31.0370   -1.7841   -9.3679 C.3       9 UNK        -0.1955 
     57 C          31.7344    0.6314   -9.6041 C.2       9 UNK         0.5031 
     58 O          32.9627    0.5538   -9.6227 O.2       9 UNK        -0.5390 
     59 N          31.0634    1.6423   -9.0329 N.am      10 UNK        -0.4204 
     60 CA         31.5878    2.8014   -8.2938 C.3       10 UNK         0.0237 
     61 CB         32.6067    3.6136   -9.1179 C.3       10 UNK        -0.1985 
     62 C          32.1360    2.4545   -6.8978 C.2       10 UNK         0.4970 
     63 O          31.9230    3.2295   -5.9653 O.2       10 UNK        -0.4914 
     64 N          32.8031    1.3028   -6.7651 N.am      11 UNK        -0.4285 
     65 CA         33.2817    0.7313   -5.4970 C.3       11 UNK         0.1007 
     66 C          32.1685    0.2517   -4.5222 C.2       11 UNK         0.5703 
     67 N          30.9261    0.0836   -4.9577 N.am      11 UNK        -0.7361 
     68 O          32.4359    0.0688   -3.3385 O.2       11 UNK        -0.4986 
     69 C69        34.3720   -0.3510   -5.7237 C.3       12 UNK        -0.0947 
     70 S70        33.9212   -1.6228   -6.9556 S.3       12 UNK        -0.2240 
     71 C71        34.1304   -3.1770   -6.0343 C.3       12 UNK         0.0194 
     72 H72        28.3365   -5.9599    1.9121 H         1 UNK         0.0906 
     73 H73        26.8449   -5.9736    0.9677 H         1 UNK         0.0906 
     74 H74        28.4053   -6.1168    0.1562 H         1 UNK         0.0906 
     75 H75        29.0234   -4.2119   -0.8355 H         1 UNK         0.3140 
     76 H76        29.0259   -1.6727    0.4872 H         1 UNK         0.1085 
     77 H77        29.5853   -2.3527   -2.4510 H         1 UNK         0.0836 
     78 H78        29.8687   -0.8045   -1.7156 H         1 UNK         0.0836 
     79 H79        32.6792   -4.4189   -1.2981 H         1 UNK         0.0731 
     80 H80        30.9639   -4.7029   -1.2741 H         1 UNK         0.0731 
     81 H81        33.7341   -3.2409   -3.3254 H         1 UNK         0.1312 
     82 H82        31.7466   -3.9858   -7.0506 H         1 UNK         0.1406 
     83 H83        29.7340   -4.7884   -3.3527 H         1 UNK         0.1631 
     84 H84        29.2374   -5.9216   -5.9907 H         1 UNK         0.0717 
     85 H85        29.4593   -4.6046   -7.1190 H         1 UNK         0.0717 
     86 H86        28.0382   -1.8333   -4.5700 H         1 UNK         0.0934 
     87 H87        29.3298   -2.1758   -5.6771 H         1 UNK         0.0934 
     88 H88        27.7533   -2.0224   -7.6180 H         1 UNK         0.0739 
     89 H89        25.7104   -1.7815   -5.6079 H         1 UNK         0.3093 
     90 H90        23.1939   -0.4637   -7.8003 H         1 UNK         0.0818 
     91 H91        22.0157   -2.4863   -6.9776 H         1 UNK         0.0819 
     92 H92        23.2290   -2.9386   -8.1622 H         1 UNK         0.0819 
     93 H93        23.5404   -3.2012   -6.4521 H         1 UNK         0.0819 
     94 H94        23.1398   -1.1782   -5.0367 H         1 UNK         0.3041 
     95 H95        24.3711    1.8561   -3.6847 H         1 UNK         0.0784 
     96 H96        22.0018    2.4424   -4.2313 H         1 UNK         0.0793 
     97 H97        21.4800    0.8337   -3.7510 H         1 UNK         0.0793 
     98 H98        22.1668    1.9382   -2.5586 H         1 UNK         0.0793 
     99 H99        23.2200   -0.3578   -2.3855 H         1 UNK         0.3024 
    100 H100       24.6380   -1.6697   -1.1039 H         1 UNK         0.1171 
    101 H101       23.5295   -2.9412   -2.9744 H         1 UNK         0.0786 
    102 H102       24.5442   -3.9973   -2.0123 H         1 UNK         0.0786 
    103 H103       25.1048   -3.4313   -3.5846 H         1 UNK         0.0786 
    104 H104       26.8842   -3.1868   -1.8699 H         1 UNK         0.2977 
    105 H105       26.8940    0.4919   -5.1971 H         1 UNK         0.3127 
    106 H106       28.9792    2.3039   -5.8012 H         1 UNK         0.0770 
    107 H107       26.1560    2.9491   -4.8025 H         1 UNK         0.0814 
    108 H108       27.5779    3.9659   -4.6378 H         1 UNK         0.0814 
    109 H109       27.4970    2.4353   -3.7772 H         1 UNK         0.0814 
    110 H110       25.8237    1.8444   -7.3937 H         1 UNK         0.2983 
    111 H111       26.1290    4.0710   -9.2209 H         1 UNK         0.0947 
    112 H112       24.1397    3.0424  -10.3337 H         1 UNK         0.0806 
    113 H113       23.8943    3.2292   -8.6040 H         1 UNK         0.0806 
    114 H114       24.2580    1.6431   -9.2740 H         1 UNK         0.0806 
    115 H115       26.3700    0.4762   -9.6611 H         1 UNK         0.3000 
    116 H116       27.0972    0.8183  -12.4348 H         1 UNK         0.0850 
    117 H117       27.0442   -1.6554  -12.4710 H         1 UNK         0.0810 
    118 H118       25.6264   -1.0222  -11.6491 H         1 UNK         0.0810 
    119 H119       26.9533   -1.7106  -10.7162 H         1 UNK         0.0810 
    120 H120       28.9394   -0.2105   -9.5161 H         1 UNK         0.3040 
    121 H121       31.3501   -0.7245  -11.2015 H         1 UNK         0.0766 
    122 H122       32.0722   -2.1250   -9.3298 H         1 UNK         0.0812 
    123 H123       30.4454   -2.6009   -9.7811 H         1 UNK         0.0812 
    124 H124       30.7126   -1.6207   -8.3397 H         1 UNK         0.0812 
    125 H125       30.0572    1.5373   -8.9916 H         1 UNK         0.3205 
    126 H126       30.7285    3.4504   -8.1309 H         1 UNK         0.0754 
    127 H127       32.8633    4.5420   -8.6061 H         1 UNK         0.0769 
    128 H128       32.2025    3.8824  -10.0939 H         1 UNK         0.0769 
    129 H129       33.5373    3.0684   -9.2770 H         1 UNK         0.0769 
    130 H130       32.9637    0.7437   -7.5962 H         1 UNK         0.2981 
    131 H131       33.7736    1.5494   -4.9674 H         1 UNK         0.0541 
    132 H132       30.6957    0.2426   -5.9257 H         1 UNK         0.3459 
    133 H133       30.2215   -0.1978   -4.2986 H         1 UNK         0.3459 
    134 H134       34.6539   -0.8233   -4.7809 H         1 UNK         0.0612 
    135 H135       35.2801    0.1320   -6.0869 H         1 UNK         0.0612 
    136 H136       34.3687   -3.9672   -6.7475 H         1 UNK         0.0624 
    137 H137       34.9927   -3.1025   -5.3702 H         1 UNK         0.0624 
@<TRIPOS>BOND
     1    1    2 1    
     2    1   72 1    
     3    1   73 1    
     4    1   74 1    
     5    2    3 2    
     6    2    4 am   BACKBONE|DICT|INTERRES
     7    4    5 1    
     8    4   75 1    
     9    5    6 1    
    10    5   35 1    
    11    5   76 1    
    12    6    7 1    
    13    6   77 1    
    14    6   78 1    
    15    7    8 1    
    16    8    9 1    
    17    8   79 1    
    18    8   80 1    
    19    9   10 ar   
    20    9   14 ar   
    21   10   11 ar   
    22   10   81 1    
    23   11   12 ar   
    24   11   71 1    
    25   12   13 ar   
    26   12   82 1    
    27   13   14 ar   
    28   13   15 1    
    29   14   83 1    
    30   15   16 1    
    31   15   84 1    
    32   15   85 1    
    33   16   17 1    
    34   17   18 1    
    35   17   86 1    
    36   17   87 1    
    37   18   19 1    
    38   18   37 1    
    39   18   88 1    
    40   19   20 am   BACKBONE|DICT|INTERRES
    41   19   89 1    
    42   20   21 2    
    43   20   22 1    
    44   22   23 1    
    45   22   24 1    
    46   22   90 1    
    47   23   91 1    
    48   23   92 1    
    49   23   93 1    
    50   24   25 am   BACKBONE|DICT|INTERRES
    51   24   94 1    
    52   25   26 2    
    53   25   27 1    
    54   27   28 1    
    55   27   29 1    
    56   27   95 1    
    57   28   96 1    
    58   28   97 1    
    59   28   98 1    
    60   29   30 am   BACKBONE|DICT|INTERRES
    61   29   99 1    
    62   30   31 2    
    63   30   32 1    
    64   32   33 1    
    65   32   34 1    
    66   32  100 1    
    67   33  101 1    
    68   33  102 1    
    69   33  103 1    
    70   34   35 am   BACKBONE|DICT|INTERRES
    71   34  104 1    
    72   35   36 2    
    73   37   38 2    
    74   37   39 am   BACKBONE|DICT|INTERRES
    75   39   40 1    
    76   39  105 1    
    77   40   41 1    
    78   40   42 1    
    79   40  106 1    
    80   41  107 1    
    81   41  108 1    
    82   41  109 1    
    83   42   43 2    
    84   42   44 am   BACKBONE|DICT|INTERRES
    85   44   45 1    
    86   44  110 1    
    87   45   46 1    
    88   45   47 1    
    89   45  111 1    
    90   46  112 1    
    91   46  113 1    
    92   46  114 1    
    93   47   48 2    
    94   47   49 am   BACKBONE|DICT|INTERRES
    95   49   50 1    
    96   49  115 1    
    97   50   51 1    
    98   50   52 1    
    99   50  116 1    
   100   51  117 1    
   101   51  118 1    
   102   51  119 1    
   103   52   53 2    
   104   52   54 am   BACKBONE|DICT|INTERRES
   105   54   55 1    
   106   54  120 1    
   107   55   56 1    
   108   55   57 1    
   109   55  121 1    
   110   56  122 1    
   111   56  123 1    
   112   56  124 1    
   113   57   58 2    
   114   57   59 am   BACKBONE|DICT|INTERRES
   115   59   60 1    
   116   59  125 1    
   117   60   61 1    
   118   60   62 1    
   119   60  126 1    
   120   61  127 1    
   121   61  128 1    
   122   61  129 1    
   123   62   63 2    
   124   62   64 am   BACKBONE|DICT|INTERRES
   125   64   65 1    
   126   64  130 1    
   127   65   66 1    
   128   65   69 1    
   129   65  131 1    
   130   66   67 am   BACKBONE|DICT|INTERRES
   131   66   68 2    
   132   67  132 1    
   133   67  133 1    
   134   69   70 1    
   135   69  134 1    
   136   69  135 1    
   137   70   71 1    
   138   71  136 1    
   139   71  137 1    
@<TRIPOS>SUBSTRUCTURE
     1 UNK         1 GROUP             0       ****    0 ROOT    
