@<TRIPOS>MOLECULE
3R137
137   139    1
SMALL
USER_CHARGES


@<TRIPOS>ATOM
      1 CA         29.8754    0.3421    0.9087 C.3       0 UNK        -0.2020 
      2 C          29.3333   -0.5940   -0.1608 C.2       0 UNK         0.4855 
      3 O          29.1997   -0.1885   -1.3152 O.2       0 UNK        -0.5197 
      4 N          29.0337   -1.8438    0.2135 N.am      1 UNK        -0.4892 
      5 CA         28.4931   -2.8755   -0.6782 C.3       1 UNK         0.0835 
      6 C6         28.6283   -4.3044   -0.0802 C.3       12 UNK        -0.0855 
      7 S7         30.2986   -4.7072    0.5441 S.3       12 UNK        -0.2931 
      8 C8         31.0979   -5.4456   -0.9212 C.3       12 UNK         0.0378 
      9 C9         31.2383   -4.4488   -2.0643 C.ar      12 UNK        -0.0802 
     10 C10        31.8742   -3.2211   -1.8521 C.ar      12 UNK        -0.0944 
     11 C11        31.9423   -2.2671   -2.8700 C.ar      12 UNK        -0.0787 
     12 C12        31.4145   -2.5735   -4.1276 C.ar      12 UNK        -0.0862 
     13 C13        30.7955   -3.8067   -4.3633 C.ar      12 UNK        -0.0733 
     14 C14        30.7070   -4.7388   -3.3250 C.ar      12 UNK        -0.0832 
     15 C15        30.2181   -4.1359   -5.7355 C.3       12 UNK         0.0240 
     16 S16        28.4279   -3.7922   -5.8292 S.3       12 UNK        -0.2522 
     17 C17        28.4105   -1.9762   -5.7174 C.3       12 UNK        -0.0967 
     18 CA         27.5964   -1.2843   -6.8358 C.3       5 UNK         0.0660 
     19 N          26.1599   -1.5734   -6.7952 N.am      5 UNK        -0.4015 
     20 C          25.2890   -1.2055   -7.7497 C.2       4 UNK         0.4946 
     21 O          25.6121   -0.6233   -8.7848 O.2       4 UNK        -0.5353 
     22 CA         23.7995   -1.4878   -7.4913 C.3       4 UNK         0.0277 
     23 CB         23.4535   -2.9406   -7.8543 C.3       4 UNK        -0.1981 
     24 N          23.4020   -1.2168   -6.1090 N.am      4 UNK        -0.4209 
     25 C          23.4498   -0.0124   -5.5191 C.2       3 UNK         0.4942 
     26 O          23.7546    1.0260   -6.1034 O.2       3 UNK        -0.5208 
     27 CA         23.1760    0.0257   -4.0044 C.3       3 UNK         0.0250 
     28 CB         21.6775    0.2263   -3.7296 C.3       3 UNK        -0.1990 
     29 N          23.6519   -1.1769   -3.3089 N.am      3 UNK        -0.4232 
     30 C          24.9334   -1.5691   -3.2765 C.2       2 UNK         0.4993 
     31 O          25.8547   -0.9268   -3.7868 O.2       2 UNK        -0.5286 
     32 CA         25.2041   -2.9557   -2.6735 C.3       2 UNK         0.0209 
     33 CB         24.9454   -4.0501   -3.7236 C.3       2 UNK        -0.1931 
     34 N          26.5813   -3.0841   -2.1963 N.am      2 UNK        -0.4546 
     35 C          27.0188   -2.5910   -1.0316 C.2       1 UNK         0.5154 
     36 O          26.2930   -1.9983   -0.2270 O.2       1 UNK        -0.5181 
     37 C          27.8640    0.2268   -6.7812 C.2       5 UNK         0.5014 
     38 O          28.6993    0.7109   -7.5456 O.2       5 UNK        -0.5248 
     39 N          27.1564    0.9308   -5.8860 N.am      6 UNK        -0.4434 
     40 CA         27.2347    2.3833   -5.7284 C.3       6 UNK         0.0363 
     41 CB         26.4481    2.8118   -4.4795 C.3       6 UNK        -0.1936 
     42 C          26.7478    3.1399   -6.9756 C.2       6 UNK         0.5081 
     43 O          27.4032    4.0940   -7.3937 O.2       6 UNK        -0.5248 
     44 N          25.6305    2.6861   -7.5616 N.am      7 UNK        -0.4718 
     45 CA         25.0525    3.2338   -8.7911 C.3       7 UNK         0.0273 
     46 CB         23.6565    2.6316   -9.0172 C.3       7 UNK        -0.1935 
     47 C          25.9439    3.0157  -10.0248 C.2       7 UNK         0.5018 
     48 O          26.1166    3.9446  -10.8149 O.2       7 UNK        -0.5186 
     49 N          26.4972    1.8031  -10.1666 N.am      8 UNK        -0.4240 
     50 CA         27.3917    1.4318  -11.2669 C.3       8 UNK         0.0235 
     51 CB         27.4262   -0.1007  -11.3862 C.3       8 UNK        -0.2000 
     52 C          28.8229    1.9783  -11.1179 C.2       8 UNK         0.4941 
     53 O          29.5434    2.0202  -12.1159 O.2       8 UNK        -0.5273 
     54 N          29.2176    2.3412   -9.8869 N.am      9 UNK        -0.4262 
     55 CA         30.5822    2.6570   -9.4428 C.3       9 UNK         0.0264 
     56 CB         31.1141    3.9408  -10.1144 C.3       9 UNK        -0.1955 
     57 C          31.5159    1.4406   -9.6102 C.2       9 UNK         0.5031 
     58 O          32.6198    1.5660  -10.1435 O.2       9 UNK        -0.5390 
     59 N          31.0255    0.2713   -9.1762 N.am      10 UNK        -0.4204 
     60 CA         31.6570   -1.0356   -9.3867 C.3       10 UNK         0.0237 
     61 CB         30.5681   -2.1212   -9.3786 C.3       10 UNK        -0.1985 
     62 C          32.7573   -1.3787   -8.3671 C.2       10 UNK         0.4970 
     63 O          33.4637   -2.3669   -8.5712 O.2       10 UNK        -0.4914 
     64 N          32.8684   -0.5991   -7.2840 N.am      11 UNK        -0.4285 
     65 CA         33.8699   -0.7759   -6.2230 C.3       11 UNK         0.1007 
     66 C          35.3291   -0.5799   -6.7246 C.2       11 UNK         0.5703 
     67 N          36.2713   -1.3705   -6.2289 N.am      11 UNK        -0.7361 
     68 O          35.6161    0.3053   -7.5286 O.2       11 UNK        -0.4986 
     69 C69        33.5523    0.1414   -5.0128 C.3       12 UNK        -0.0947 
     70 S70        34.1024   -0.5824   -3.4294 S.3       12 UNK        -0.2240 
     71 C71        32.5224   -0.8884   -2.5770 C.3       12 UNK         0.0194 
     72 H72        29.2186    1.2045    1.0196 H         1 UNK         0.0906 
     73 H73        30.8646    0.7008    0.6255 H         1 UNK         0.0906 
     74 H74        29.9576   -0.1490    1.8782 H         1 UNK         0.0906 
     75 H75        29.1552   -2.1246    1.1758 H         1 UNK         0.3140 
     76 H76        29.0612   -2.8302   -1.6090 H         1 UNK         0.1085 
     77 H77        28.3391   -5.0556   -0.8178 H         1 UNK         0.0836 
     78 H78        27.9380   -4.4289    0.7569 H         1 UNK         0.0836 
     79 H79        32.0903   -5.8008   -0.6405 H         1 UNK         0.0731 
     80 H80        30.5313   -6.3250   -1.2315 H         1 UNK         0.0731 
     81 H81        32.2713   -2.9911   -0.8728 H         1 UNK         0.1312 
     82 H82        31.4758   -1.8424   -4.9188 H         1 UNK         0.1406 
     83 H83        30.2145   -5.6860   -3.4998 H         1 UNK         0.1631 
     84 H84        30.3827   -5.1914   -5.9570 H         1 UNK         0.0717 
     85 H85        30.7436   -3.5815   -6.5142 H         1 UNK         0.0717 
     86 H86        28.0565   -1.6958   -4.7251 H         1 UNK         0.0934 
     87 H87        29.4389   -1.6217   -5.7680 H         1 UNK         0.0934 
     88 H88        27.9609   -1.6412   -7.8002 H         1 UNK         0.0739 
     89 H89        25.8149   -1.9993   -5.9485 H         1 UNK         0.3093 
     90 H90        23.2210   -0.8256   -8.1390 H         1 UNK         0.0818 
     91 H91        23.7268   -3.1583   -8.8879 H         1 UNK         0.0819 
     92 H92        23.9800   -3.6559   -7.2211 H         1 UNK         0.0819 
     93 H93        22.3841   -3.1298   -7.7584 H         1 UNK         0.0819 
     94 H94        23.1168   -2.0085   -5.5523 H         1 UNK         0.3041 
     95 H95        23.7174    0.8813   -3.5952 H         1 UNK         0.0784 
     96 H96        21.3090    1.1272   -4.2226 H         1 UNK         0.0793 
     97 H97        21.0815   -0.6114   -4.0940 H         1 UNK         0.0793 
     98 H98        21.4813    0.3405   -2.6632 H         1 UNK         0.0793 
     99 H99        22.9482   -1.7567   -2.8736 H         1 UNK         0.3024 
    100 H100       24.5245   -3.1081   -1.8313 H         1 UNK         0.1171 
    101 H101       23.9141   -4.0247   -4.0776 H         1 UNK         0.0786 
    102 H102       25.5929   -3.9407   -4.5942 H         1 UNK         0.0786 
    103 H103       25.1143   -5.0438   -3.3077 H         1 UNK         0.0786 
    104 H104       27.2355   -3.5311   -2.8224 H         1 UNK         0.2977 
    105 H105       26.5284    0.4310   -5.2644 H         1 UNK         0.3127 
    106 H106       28.2845    2.6415   -5.5733 H         1 UNK         0.0770 
    107 H107       25.3858    2.5848   -4.5714 H         1 UNK         0.0814 
    108 H108       26.5380    3.8861   -4.3135 H         1 UNK         0.0814 
    109 H109       26.8209    2.3121   -3.5851 H         1 UNK         0.0814 
    110 H110       25.1145    1.9334   -7.1115 H         1 UNK         0.2983 
    111 H111       24.9396    4.3114   -8.6536 H         1 UNK         0.0947 
    112 H112       23.6975    1.5471   -9.1252 H         1 UNK         0.0806 
    113 H113       23.1977    3.0343   -9.9213 H         1 UNK         0.0806 
    114 H114       22.9886    2.8581   -8.1858 H         1 UNK         0.0806 
    115 H115       26.2571    1.0681   -9.5049 H         1 UNK         0.3000 
    116 H116       26.9838    1.8357  -12.1961 H         1 UNK         0.0850 
    117 H117       28.0704   -0.4187  -12.2071 H         1 UNK         0.0810 
    118 H118       26.4323   -0.5057  -11.5777 H         1 UNK         0.0810 
    119 H119       27.8041   -0.5637  -10.4741 H         1 UNK         0.0810 
    120 H120       28.5495    2.2152   -9.1357 H         1 UNK         0.3040 
    121 H121       30.5160    2.8497   -8.3708 H         1 UNK         0.0766 
    122 H122       31.2650    3.8094  -11.1862 H         1 UNK         0.0812 
    123 H123       32.0738    4.2330   -9.6869 H         1 UNK         0.0812 
    124 H124       30.4273    4.7751   -9.9717 H         1 UNK         0.0812 
    125 H125       30.1257    0.2879   -8.6993 H         1 UNK         0.3205 
    126 H126       32.1242   -1.0370  -10.3740 H         1 UNK         0.0754 
    127 H127       30.9892   -3.0999   -9.6130 H         1 UNK         0.0769 
    128 H128       29.7963   -1.9190  -10.1209 H         1 UNK         0.0769 
    129 H129       30.0908   -2.2012   -8.4034 H         1 UNK         0.0769 
    130 H130       32.2777    0.2149   -7.2175 H         1 UNK         0.2981 
    131 H131       33.7705   -1.8148   -5.9011 H         1 UNK         0.0541 
    132 H132       37.2248   -1.2484   -6.5319 H         1 UNK         0.3459 
    133 H133       36.0477   -2.0776   -5.5460 H         1 UNK         0.3459 
    134 H134       32.4804    0.3325   -4.9507 H         1 UNK         0.0612 
    135 H135       34.0092    1.1263   -5.1280 H         1 UNK         0.0612 
    136 H136       31.7919   -0.1200   -2.8331 H         1 UNK         0.0624 
    137 H137       32.6965   -0.7773   -1.5057 H         1 UNK         0.0624 
@<TRIPOS>BOND
     1    1    2 1    
     2    1   72 1    
     3    1   73 1    
     4    1   74 1    
     5    2    3 2    
     6    2    4 am   BACKBONE|DICT|INTERRES
     7    4    5 1    
     8    4   75 1    
     9    5    6 1    
    10    5   35 1    
    11    5   76 1    
    12    6    7 1    
    13    6   77 1    
    14    6   78 1    
    15    7    8 1    
    16    8    9 1    
    17    8   79 1    
    18    8   80 1    
    19    9   10 ar   
    20    9   14 ar   
    21   10   11 ar   
    22   10   81 1    
    23   11   12 ar   
    24   11   71 1    
    25   12   13 ar   
    26   12   82 1    
    27   13   14 ar   
    28   13   15 1    
    29   14   83 1    
    30   15   16 1    
    31   15   84 1    
    32   15   85 1    
    33   16   17 1    
    34   17   18 1    
    35   17   86 1    
    36   17   87 1    
    37   18   19 1    
    38   18   37 1    
    39   18   88 1    
    40   19   20 am   BACKBONE|DICT|INTERRES
    41   19   89 1    
    42   20   21 2    
    43   20   22 1    
    44   22   23 1    
    45   22   24 1    
    46   22   90 1    
    47   23   91 1    
    48   23   92 1    
    49   23   93 1    
    50   24   25 am   BACKBONE|DICT|INTERRES
    51   24   94 1    
    52   25   26 2    
    53   25   27 1    
    54   27   28 1    
    55   27   29 1    
    56   27   95 1    
    57   28   96 1    
    58   28   97 1    
    59   28   98 1    
    60   29   30 am   BACKBONE|DICT|INTERRES
    61   29   99 1    
    62   30   31 2    
    63   30   32 1    
    64   32   33 1    
    65   32   34 1    
    66   32  100 1    
    67   33  101 1    
    68   33  102 1    
    69   33  103 1    
    70   34   35 am   BACKBONE|DICT|INTERRES
    71   34  104 1    
    72   35   36 2    
    73   37   38 2    
    74   37   39 am   BACKBONE|DICT|INTERRES
    75   39   40 1    
    76   39  105 1    
    77   40   41 1    
    78   40   42 1    
    79   40  106 1    
    80   41  107 1    
    81   41  108 1    
    82   41  109 1    
    83   42   43 2    
    84   42   44 am   BACKBONE|DICT|INTERRES
    85   44   45 1    
    86   44  110 1    
    87   45   46 1    
    88   45   47 1    
    89   45  111 1    
    90   46  112 1    
    91   46  113 1    
    92   46  114 1    
    93   47   48 2    
    94   47   49 am   BACKBONE|DICT|INTERRES
    95   49   50 1    
    96   49  115 1    
    97   50   51 1    
    98   50   52 1    
    99   50  116 1    
   100   51  117 1    
   101   51  118 1    
   102   51  119 1    
   103   52   53 2    
   104   52   54 am   BACKBONE|DICT|INTERRES
   105   54   55 1    
   106   54  120 1    
   107   55   56 1    
   108   55   57 1    
   109   55  121 1    
   110   56  122 1    
   111   56  123 1    
   112   56  124 1    
   113   57   58 2    
   114   57   59 am   BACKBONE|DICT|INTERRES
   115   59   60 1    
   116   59  125 1    
   117   60   61 1    
   118   60   62 1    
   119   60  126 1    
   120   61  127 1    
   121   61  128 1    
   122   61  129 1    
   123   62   63 2    
   124   62   64 am   BACKBONE|DICT|INTERRES
   125   64   65 1    
   126   64  130 1    
   127   65   66 1    
   128   65   69 1    
   129   65  131 1    
   130   66   67 am   BACKBONE|DICT|INTERRES
   131   66   68 2    
   132   67  132 1    
   133   67  133 1    
   134   69   70 1    
   135   69  134 1    
   136   69  135 1    
   137   70   71 1    
   138   71  136 1    
   139   71  137 1    
@<TRIPOS>SUBSTRUCTURE
     1 UNK         1 GROUP             0       ****    0 ROOT    
