@<TRIPOS>MOLECULE
3R137
137   139    1
SMALL
USER_CHARGES


@<TRIPOS>ATOM
      1 CA         26.4220   -0.9999    3.3212 C.3       0 UNK        -0.2020 
      2 C          26.3506   -2.0361    2.2096 C.2       0 UNK         0.4855 
      3 O          25.8966   -3.1549    2.4488 O.2       0 UNK        -0.5197 
      4 N          26.7945   -1.6683    0.9981 N.am      1 UNK        -0.4892 
      5 CA         26.8037   -2.5105   -0.2097 C.3       1 UNK         0.0835 
      6 C6         27.7351   -3.7506   -0.0700 C.3       12 UNK        -0.0855 
      7 S7         28.6863   -4.1161   -1.5863 S.3       12 UNK        -0.2931 
      8 C8         30.2391   -3.1956   -1.3186 C.3       12 UNK         0.0378 
      9 C9         30.3564   -2.0317   -2.2914 C.ar      12 UNK        -0.0802 
     10 C10        31.1288   -2.1528   -3.4504 C.ar      12 UNK        -0.0944 
     11 C11        31.2167   -1.0940   -4.3601 C.ar      12 UNK        -0.0787 
     12 C12        30.5124    0.0875   -4.1130 C.ar      12 UNK        -0.0862 
     13 C13        29.7198    0.2104   -2.9666 C.ar      12 UNK        -0.0733 
     14 C14        29.6754   -0.8379   -2.0444 C.ar      12 UNK        -0.0832 
     15 C15        28.8729    1.4530   -2.7403 C.3       12 UNK         0.0240 
     16 S16        27.5614    1.6118   -3.9967 S.3       12 UNK        -0.2522 
     17 C17        26.5963    0.0662   -3.7937 C.3       12 UNK        -0.0967 
     18 CA         26.9749   -1.0593   -4.7961 C.3       5 UNK         0.0660 
     19 N          26.2076   -2.2862   -4.5637 N.am      5 UNK        -0.4015 
     20 C          26.5587   -3.4862   -5.0578 C.2       4 UNK         0.4946 
     21 O          27.6073   -3.6797   -5.6746 O.2       4 UNK        -0.5353 
     22 CA         25.6028   -4.6798   -4.8650 C.3       4 UNK         0.0277 
     23 CB         26.2308   -5.7637   -3.9728 C.3       4 UNK        -0.1981 
     24 N          24.2987   -4.2985   -4.3215 N.am      4 UNK        -0.4209 
     25 C          23.2687   -3.8740   -5.0691 C.2       3 UNK         0.4942 
     26 O          23.2986   -3.8197   -6.2991 O.2       3 UNK        -0.5208 
     27 CA         21.9845   -3.4280   -4.3410 C.3       3 UNK         0.0250 
     28 CB         20.9043   -4.5177   -4.4427 C.3       3 UNK        -0.1990 
     29 N          22.1701   -3.0708   -2.9309 N.am      3 UNK        -0.4232 
     30 C          22.9502   -2.0794   -2.4806 C.2       2 UNK         0.4993 
     31 O          23.6176   -1.3525   -3.2187 O.2       2 UNK        -0.5286 
     32 CA         23.0536   -1.8871   -0.9553 C.3       2 UNK         0.0209 
     33 CB         22.2451   -2.9090   -0.1221 C.3       2 UNK        -0.1931 
     34 N          24.4552   -1.8701   -0.5203 N.am      2 UNK        -0.4546 
     35 C          25.3782   -2.8256   -0.7234 C.2       1 UNK         0.5154 
     36 O          25.1384   -3.8888   -1.2990 O.2       1 UNK        -0.5181 
     37 C          26.8045   -0.6114   -6.2623 C.2       5 UNK         0.5014 
     38 O          25.6734   -0.4970   -6.7410 O.2       5 UNK        -0.5248 
     39 N          27.9299   -0.3268   -6.9241 N.am      6 UNK        -0.4434 
     40 CA         28.0040    0.2509   -8.2635 C.3       6 UNK         0.0363 
     41 CB         28.1067   -0.8656   -9.3189 C.3       6 UNK        -0.1936 
     42 C          29.1678    1.2504   -8.3094 C.2       6 UNK         0.5081 
     43 O          29.9812    1.2202   -9.2359 O.2       6 UNK        -0.5248 
     44 N          29.2338    2.1221   -7.2902 N.am      7 UNK        -0.4718 
     45 CA         30.2846    3.1279   -7.0849 C.3       7 UNK         0.0273 
     46 CB         30.0146    3.8997   -5.7842 C.3       7 UNK        -0.1935 
     47 C          30.4661    4.1112   -8.2528 C.2       7 UNK         0.5018 
     48 O          31.5923    4.5400   -8.5013 O.2       7 UNK        -0.5186 
     49 N          29.3819    4.3956   -8.9888 N.am      8 UNK        -0.4240 
     50 CA         29.3797    5.2065  -10.2122 C.3       8 UNK         0.0235 
     51 CB         27.9305    5.3976  -10.6882 C.3       8 UNK        -0.2000 
     52 C          30.2469    4.6297  -11.3496 C.2       8 UNK         0.4941 
     53 O          30.7284    5.3983  -12.1826 O.2       8 UNK        -0.5273 
     54 N          30.4467    3.3047  -11.3509 N.am      9 UNK        -0.4262 
     55 CA         31.3407    2.5807  -12.2562 C.3       9 UNK         0.0264 
     56 CB         30.5359    1.4520  -12.9266 C.3       9 UNK        -0.1955 
     57 C          32.5614    2.0084  -11.5098 C.2       9 UNK         0.5031 
     58 O          33.2923    1.2067  -12.0940 O.2       9 UNK        -0.5390 
     59 N          32.7358    2.3682  -10.2258 N.am      10 UNK        -0.4204 
     60 CA         33.7110    1.8296   -9.2654 C.3       10 UNK         0.0237 
     61 CB         35.1295    2.3302   -9.6093 C.3       10 UNK        -0.1985 
     62 C          33.6455    0.2932   -9.1088 C.2       10 UNK         0.4970 
     63 O          34.6663   -0.3314   -8.8153 O.2       10 UNK        -0.4914 
     64 N          32.4580   -0.2859   -9.3410 N.am      11 UNK        -0.4285 
     65 CA         32.2063   -1.7292   -9.4861 C.3       11 UNK         0.1007 
     66 C          32.9785   -2.4138  -10.6593 C.2       11 UNK         0.5703 
     67 N          33.4594   -1.6831  -11.6592 N.am      11 UNK        -0.7361 
     68 O          33.1158   -3.6348  -10.6905 O.2       11 UNK        -0.4986 
     69 C69        32.3176   -2.5013   -8.1411 C.3       12 UNK        -0.0947 
     70 S70        31.0431   -1.9878   -6.9433 S.3       12 UNK        -0.2240 
     71 C71        32.0458   -1.2477   -5.6243 C.3       12 UNK         0.0194 
     72 H72        27.0390   -1.3704    4.1394 H         1 UNK         0.0906 
     73 H73        26.8473   -0.0575    2.9767 H         1 UNK         0.0906 
     74 H74        25.4245   -0.7991    3.7111 H         1 UNK         0.0906 
     75 H75        27.1533   -0.7305    0.8785 H         1 UNK         0.3140 
     76 H76        27.2150   -1.8755   -0.9912 H         1 UNK         0.1085 
     77 H77        27.1675   -4.6393    0.2130 H         1 UNK         0.0836 
     78 H78        28.4445   -3.6085    0.7462 H         1 UNK         0.0836 
     79 H79        31.0774   -3.8816   -1.4491 H         1 UNK         0.0731 
     80 H80        30.3089   -2.8286   -0.2940 H         1 UNK         0.0731 
     81 H81        31.6522   -3.0773   -3.6536 H         1 UNK         0.1312 
     82 H82        30.5552    0.8975   -4.8273 H         1 UNK         0.1406 
     83 H83        29.0903   -0.7341   -1.1433 H         1 UNK         0.1631 
     84 H84        29.5114    2.3363   -2.7709 H         1 UNK         0.0717 
     85 H85        28.4146    1.4429   -1.7502 H         1 UNK         0.0717 
     86 H86        26.7072   -0.2897   -2.7697 H         1 UNK         0.0934 
     87 H87        25.5414    0.3240   -3.9031 H         1 UNK         0.0934 
     88 H88        28.0251   -1.3081   -4.6317 H         1 UNK         0.0739 
     89 H89        25.2992   -2.1712   -4.1276 H         1 UNK         0.3093 
     90 H90        25.4572   -5.1222   -5.8529 H         1 UNK         0.0818 
     91 H91        26.4017   -5.4070   -2.9585 H         1 UNK         0.0819 
     92 H92        25.5943   -6.6466   -3.9139 H         1 UNK         0.0819 
     93 H93        27.1952   -6.0859   -4.3677 H         1 UNK         0.0819 
     94 H94        24.2167   -4.2907   -3.3110 H         1 UNK         0.3041 
     95 H95        21.6204   -2.5370   -4.8570 H         1 UNK         0.0784 
     96 H96        20.7152   -4.7851   -5.4835 H         1 UNK         0.0793 
     97 H97        21.2003   -5.4291   -3.9214 H         1 UNK         0.0793 
     98 H98        19.9571   -4.1803   -4.0214 H         1 UNK         0.0793 
     99 H99        21.6795   -3.6362   -2.2530 H         1 UNK         0.3024 
    100 H100       22.6476   -0.8949   -0.7511 H         1 UNK         0.1171 
    101 H101       22.3440   -2.7037    0.9441 H         1 UNK         0.0786 
    102 H102       22.5790   -3.9344   -0.2867 H         1 UNK         0.0786 
    103 H103       21.1804   -2.8594   -0.3540 H         1 UNK         0.0786 
    104 H104       24.7559   -1.0268   -0.0524 H         1 UNK         0.2977 
    105 H105       28.8191   -0.4741   -6.4635 H         1 UNK         0.3127 
    106 H106       27.1004    0.8296   -8.4662 H         1 UNK         0.0770 
    107 H107       28.9660   -1.5096   -9.1387 H         1 UNK         0.0814 
    108 H108       28.2058   -0.4532  -10.3239 H         1 UNK         0.0814 
    109 H109       27.2159   -1.4937   -9.3131 H         1 UNK         0.0814 
    110 H110       28.5150    2.0755   -6.5804 H         1 UNK         0.2983 
    111 H111       31.2282    2.5899   -6.9724 H         1 UNK         0.0947 
    112 H112       29.0396    4.3883   -5.7974 H         1 UNK         0.0806 
    113 H113       30.7659    4.6747   -5.6242 H         1 UNK         0.0806 
    114 H114       30.0493    3.2429   -4.9174 H         1 UNK         0.0806 
    115 H115       28.5003    3.9922   -8.7068 H         1 UNK         0.3000 
    116 H116       29.7905    6.1860   -9.9579 H         1 UNK         0.0850 
    117 H117       27.8927    6.0210  -11.5828 H         1 UNK         0.0810 
    118 H118       27.3234    5.8897   -9.9281 H         1 UNK         0.0810 
    119 H119       27.4571    4.4461  -10.9344 H         1 UNK         0.0810 
    120 H120       30.0229    2.7434  -10.6184 H         1 UNK         0.3040 
    121 H121       31.7230    3.2432  -13.0351 H         1 UNK         0.0766 
    122 H122       29.6726    1.8462  -13.4629 H         1 UNK         0.0812 
    123 H123       30.1744    0.7272  -12.1956 H         1 UNK         0.0812 
    124 H124       31.1443    0.9097  -13.6516 H         1 UNK         0.0812 
    125 H125       32.1117    3.0705   -9.8445 H         1 UNK         0.3205 
    126 H126       33.4409    2.2421   -8.2925 H         1 UNK         0.0754 
    127 H127       35.8448    2.0511   -8.8346 H         1 UNK         0.0769 
    128 H128       35.1557    3.4166   -9.6946 H         1 UNK         0.0769 
    129 H129       35.4873    1.9110  -10.5504 H         1 UNK         0.0769 
    130 H130       31.6544    0.3112   -9.5140 H         1 UNK         0.2981 
    131 H131       31.1673   -1.7975   -9.8057 H         1 UNK         0.0541 
    132 H132       33.3584   -0.6721  -11.6761 H         1 UNK         0.3459 
    133 H133       33.9429   -2.1458  -12.4118 H         1 UNK         0.3459 
    134 H134       32.1720   -3.5715   -8.2953 H         1 UNK         0.0612 
    135 H135       33.3143   -2.3940   -7.7119 H         1 UNK         0.0612 
    136 H136       32.4295   -0.2823   -5.9581 H         1 UNK         0.0624 
    137 H137       32.9130   -1.8778   -5.4206 H         1 UNK         0.0624 
@<TRIPOS>BOND
     1    1    2 1    
     2    1   72 1    
     3    1   73 1    
     4    1   74 1    
     5    2    3 2    
     6    2    4 am   BACKBONE|DICT|INTERRES
     7    4    5 1    
     8    4   75 1    
     9    5    6 1    
    10    5   35 1    
    11    5   76 1    
    12    6    7 1    
    13    6   77 1    
    14    6   78 1    
    15    7    8 1    
    16    8    9 1    
    17    8   79 1    
    18    8   80 1    
    19    9   10 ar   
    20    9   14 ar   
    21   10   11 ar   
    22   10   81 1    
    23   11   12 ar   
    24   11   71 1    
    25   12   13 ar   
    26   12   82 1    
    27   13   14 ar   
    28   13   15 1    
    29   14   83 1    
    30   15   16 1    
    31   15   84 1    
    32   15   85 1    
    33   16   17 1    
    34   17   18 1    
    35   17   86 1    
    36   17   87 1    
    37   18   19 1    
    38   18   37 1    
    39   18   88 1    
    40   19   20 am   BACKBONE|DICT|INTERRES
    41   19   89 1    
    42   20   21 2    
    43   20   22 1    
    44   22   23 1    
    45   22   24 1    
    46   22   90 1    
    47   23   91 1    
    48   23   92 1    
    49   23   93 1    
    50   24   25 am   BACKBONE|DICT|INTERRES
    51   24   94 1    
    52   25   26 2    
    53   25   27 1    
    54   27   28 1    
    55   27   29 1    
    56   27   95 1    
    57   28   96 1    
    58   28   97 1    
    59   28   98 1    
    60   29   30 am   BACKBONE|DICT|INTERRES
    61   29   99 1    
    62   30   31 2    
    63   30   32 1    
    64   32   33 1    
    65   32   34 1    
    66   32  100 1    
    67   33  101 1    
    68   33  102 1    
    69   33  103 1    
    70   34   35 am   BACKBONE|DICT|INTERRES
    71   34  104 1    
    72   35   36 2    
    73   37   38 2    
    74   37   39 am   BACKBONE|DICT|INTERRES
    75   39   40 1    
    76   39  105 1    
    77   40   41 1    
    78   40   42 1    
    79   40  106 1    
    80   41  107 1    
    81   41  108 1    
    82   41  109 1    
    83   42   43 2    
    84   42   44 am   BACKBONE|DICT|INTERRES
    85   44   45 1    
    86   44  110 1    
    87   45   46 1    
    88   45   47 1    
    89   45  111 1    
    90   46  112 1    
    91   46  113 1    
    92   46  114 1    
    93   47   48 2    
    94   47   49 am   BACKBONE|DICT|INTERRES
    95   49   50 1    
    96   49  115 1    
    97   50   51 1    
    98   50   52 1    
    99   50  116 1    
   100   51  117 1    
   101   51  118 1    
   102   51  119 1    
   103   52   53 2    
   104   52   54 am   BACKBONE|DICT|INTERRES
   105   54   55 1    
   106   54  120 1    
   107   55   56 1    
   108   55   57 1    
   109   55  121 1    
   110   56  122 1    
   111   56  123 1    
   112   56  124 1    
   113   57   58 2    
   114   57   59 am   BACKBONE|DICT|INTERRES
   115   59   60 1    
   116   59  125 1    
   117   60   61 1    
   118   60   62 1    
   119   60  126 1    
   120   61  127 1    
   121   61  128 1    
   122   61  129 1    
   123   62   63 2    
   124   62   64 am   BACKBONE|DICT|INTERRES
   125   64   65 1    
   126   64  130 1    
   127   65   66 1    
   128   65   69 1    
   129   65  131 1    
   130   66   67 am   BACKBONE|DICT|INTERRES
   131   66   68 2    
   132   67  132 1    
   133   67  133 1    
   134   69   70 1    
   135   69  134 1    
   136   69  135 1    
   137   70   71 1    
   138   71  136 1    
   139   71  137 1    
@<TRIPOS>SUBSTRUCTURE
     1 UNK         1 GROUP             0       ****    0 ROOT    
