@<TRIPOS>MOLECULE
3R137
137   139    1
SMALL
USER_CHARGES


@<TRIPOS>ATOM
      1 CA         25.0904   -2.0968    1.2449 C.3       0 UNK        -0.2020 
      2 C          25.8557   -2.4109   -0.0310 C.2       0 UNK         0.4855 
      3 O          25.7014   -1.7022   -1.0259 O.2       0 UNK        -0.5197 
      4 N          26.6659   -3.4791   -0.0161 N.am      1 UNK        -0.4892 
      5 CA         27.5472   -3.9104   -1.1142 C.3       1 UNK         0.0835 
      6 C6         28.4286   -5.1191   -0.7139 C.3       12 UNK        -0.0855 
      7 S7         29.4361   -4.7763    0.7697 S.3       12 UNK        -0.2931 
      8 C8         31.0903   -4.5082    0.0503 C.3       12 UNK         0.0378 
      9 C9         31.1231   -3.3690   -0.9629 C.ar      12 UNK        -0.0802 
     10 C10        31.6010   -3.5963   -2.2566 C.ar      12 UNK        -0.0944 
     11 C11        31.6656   -2.5568   -3.1894 C.ar      12 UNK        -0.0787 
     12 C12        31.2134   -1.2845   -2.8211 C.ar      12 UNK        -0.0862 
     13 C13        30.7380   -1.0358   -1.5276 C.ar      12 UNK        -0.0733 
     14 C14        30.7049   -2.0842   -0.6028 C.ar      12 UNK        -0.0832 
     15 C15        30.3156    0.3654   -1.0928 C.3       12 UNK         0.0240 
     16 S16        28.9104    1.0337   -2.0443 S.3       12 UNK        -0.2522 
     17 C17        29.7817    1.9283   -3.3827 C.3       12 UNK        -0.0967 
     18 CA         29.1591    1.7619   -4.7962 C.3       5 UNK         0.0660 
     19 N          28.5891    0.4304   -5.0285 N.am      5 UNK        -0.4015 
     20 C          28.4165   -0.1307   -6.2315 C.2       4 UNK         0.4946 
     21 O          28.8052    0.3748   -7.2842 O.2       4 UNK        -0.5353 
     22 CA         27.6586   -1.4676   -6.2773 C.3       4 UNK         0.0277 
     23 CB         28.6308   -2.6465   -6.1386 C.3       4 UNK        -0.1981 
     24 N          26.5868   -1.5837   -5.2832 N.am      4 UNK        -0.4209 
     25 C          25.4967   -0.7990   -5.2627 C.2       3 UNK         0.4942 
     26 O          25.3522    0.1559   -6.0277 O.2       3 UNK        -0.5208 
     27 CA         24.4077   -1.0830   -4.2075 C.3       3 UNK         0.0250 
     28 CB         22.9862   -0.7755   -4.7264 C.3       3 UNK        -0.1990 
     29 N          24.4803   -2.4263   -3.6231 N.am      3 UNK        -0.4232 
     30 C          24.2926   -3.6056   -4.2406 C.2       2 UNK         0.4993 
     31 O          23.9363   -3.7155   -5.4146 O.2       2 UNK        -0.5286 
     32 CA         24.5771   -4.8780   -3.4101 C.3       2 UNK         0.0209 
     33 CB         25.0168   -6.0689   -4.2891 C.3       2 UNK        -0.1931 
     34 N          25.5394   -4.6649   -2.3178 N.am      2 UNK        -0.4546 
     35 C          26.7967   -4.2043   -2.4277 C.2       1 UNK         0.5154 
     36 O          27.3390   -3.9458   -3.5017 O.2       1 UNK        -0.5181 
     37 C          28.1684    2.9020   -5.1122 C.2       5 UNK         0.5014 
     38 O          28.6241    4.0032   -5.4221 O.2       5 UNK        -0.5248 
     39 N          26.8530    2.6412   -5.0538 N.am      6 UNK        -0.4434 
     40 CA         25.8180    3.5993   -5.4577 C.3       6 UNK         0.0363 
     41 CB         24.4694    3.2304   -4.8202 C.3       6 UNK        -0.1936 
     42 C          25.7087    3.6794   -6.9888 C.2       6 UNK         0.5081 
     43 O          25.5691    4.7759   -7.5308 O.2       6 UNK        -0.5248 
     44 N          25.8269    2.5230   -7.6588 N.am      7 UNK        -0.4718 
     45 CA         25.9975    2.4148   -9.1112 C.3       7 UNK         0.0273 
     46 CB         25.8257    0.9460   -9.5298 C.3       7 UNK        -0.1935 
     47 C          27.3600    2.9540   -9.5872 C.2       7 UNK         0.5018 
     48 O          27.4600    3.4424  -10.7135 O.2       7 UNK        -0.5186 
     49 N          28.3778    2.8430   -8.7212 N.am      8 UNK        -0.4240 
     50 CA         29.7717    3.2856   -8.8373 C.3       8 UNK         0.0235 
     51 CB         29.8777    4.8029   -9.0821 C.3       8 UNK        -0.2000 
     52 C          30.5833    2.4831   -9.8617 C.2       8 UNK         0.4941 
     53 O          31.6281    1.9362   -9.5088 O.2       8 UNK        -0.5273 
     54 N          30.0757    2.3893  -11.0965 N.am      9 UNK        -0.4262 
     55 CA         30.6757    1.6459  -12.2080 C.3       9 UNK         0.0264 
     56 CB         29.9102    1.9722  -13.5004 C.3       9 UNK        -0.1955 
     57 C          30.7273    0.1239  -11.9817 C.2       9 UNK         0.5031 
     58 O          31.5660   -0.5438  -12.5881 O.2       9 UNK        -0.5390 
     59 N          29.8384   -0.3951  -11.1229 N.am      10 UNK        -0.4204 
     60 CA         29.7996   -1.7986  -10.7161 C.3       10 UNK         0.0237 
     61 CB         28.4456   -2.1078  -10.0624 C.3       10 UNK        -0.1985 
     62 C          30.9654   -2.1695   -9.7848 C.2       10 UNK         0.4970 
     63 O          31.5796   -3.2167   -9.9925 O.2       10 UNK        -0.4914 
     64 N          31.2560   -1.3161   -8.7908 N.am      11 UNK        -0.4285 
     65 CA         32.4247   -1.4712   -7.9112 C.3       11 UNK         0.1007 
     66 C          33.7502   -1.0310   -8.5939 C.2       11 UNK         0.5703 
     67 N          33.7608    0.0579   -9.3529 N.am      11 UNK        -0.7361 
     68 O          34.7737   -1.6960   -8.4528 O.2       11 UNK        -0.4986 
     69 C69        32.2115   -0.7853   -6.5350 C.3       12 UNK        -0.0947 
     70 S70        33.2833   -1.4972   -5.2395 S.3       12 UNK        -0.2240 
     71 C71        32.2297   -2.8372   -4.5820 C.3       12 UNK         0.0194 
     72 H72        24.0177   -2.1247    1.0555 H         1 UNK         0.0906 
     73 H73        25.3138   -2.8067    2.0409 H         1 UNK         0.0906 
     74 H74        25.3479   -1.0987    1.5984 H         1 UNK         0.0906 
     75 H75        26.7602   -4.0135    0.8368 H         1 UNK         0.3140 
     76 H76        28.2048   -3.0672   -1.3335 H         1 UNK         0.1085 
     77 H77        29.0875   -5.4058   -1.5365 H         1 UNK         0.0836 
     78 H78        27.8079   -5.9932   -0.5073 H         1 UNK         0.0836 
     79 H79        31.4309   -5.4416   -0.4008 H         1 UNK         0.0731 
     80 H80        31.7917   -4.2838    0.8549 H         1 UNK         0.0731 
     81 H81        31.9387   -4.5854   -2.5352 H         1 UNK         0.1312 
     82 H82        31.2556   -0.4870   -3.5446 H         1 UNK         0.1406 
     83 H83        30.3508   -1.9064    0.4040 H         1 UNK         0.1631 
     84 H84        31.1704    1.0400   -1.1567 H         1 UNK         0.0717 
     85 H85        30.0242    0.3599   -0.0414 H         1 UNK         0.0717 
     86 H86        29.8500    2.9803   -3.0959 H         1 UNK         0.0934 
     87 H87        30.8208    1.6055   -3.4195 H         1 UNK         0.0934 
     88 H88        29.9760    1.8871   -5.5112 H         1 UNK         0.0739 
     89 H89        28.2661   -0.0588   -4.2053 H         1 UNK         0.3093 
     90 H90        27.1800   -1.5355   -7.2547 H         1 UNK         0.0818 
     91 H91        28.1183   -3.5995   -6.2714 H         1 UNK         0.0819 
     92 H92        29.1038   -2.6582   -5.1563 H         1 UNK         0.0819 
     93 H93        29.4210   -2.5980   -6.8884 H         1 UNK         0.0819 
     94 H94        26.6583   -2.3554   -4.6270 H         1 UNK         0.3041 
     95 H95        24.6100   -0.3947   -3.3856 H         1 UNK         0.0784 
     96 H96        22.8834    0.2744   -4.9992 H         1 UNK         0.0793 
     97 H97        22.7419   -1.3611   -5.6129 H         1 UNK         0.0793 
     98 H98        22.2327   -0.9845   -3.9671 H         1 UNK         0.0793 
     99 H99        24.8086   -2.4398   -2.6610 H         1 UNK         0.3024 
    100 H100       23.6283   -5.1445   -2.9411 H         1 UNK         0.1171 
    101 H101       25.2051   -6.9581   -3.6876 H         1 UNK         0.0786 
    102 H102       24.2442   -6.3289   -5.0138 H         1 UNK         0.0786 
    103 H103       25.9249   -5.8443   -4.8497 H         1 UNK         0.0786 
    104 H104       25.1852   -4.8159   -1.3828 H         1 UNK         0.2977 
    105 H105       26.5445    1.7018   -4.8472 H         1 UNK         0.3127 
    106 H106       26.0986    4.5889   -5.0898 H         1 UNK         0.0770 
    107 H107       24.0858    2.2836   -5.1967 H         1 UNK         0.0814 
    108 H108       23.7190    3.9907   -5.0404 H         1 UNK         0.0814 
    109 H109       24.5475    3.1564   -3.7355 H         1 UNK         0.0814 
    110 H110       25.8388    1.6561   -7.1264 H         1 UNK         0.2983 
    111 H111       25.2189    3.0090   -9.5944 H         1 UNK         0.0947 
    112 H112       25.9418    0.8282  -10.6081 H         1 UNK         0.0806 
    113 H113       24.8354    0.5736   -9.2670 H         1 UNK         0.0806 
    114 H114       26.5608    0.3019   -9.0472 H         1 UNK         0.0806 
    115 H115       28.1926    2.2931   -7.8908 H         1 UNK         0.3000 
    116 H116       30.2193    3.0842   -7.8626 H         1 UNK         0.0850 
    117 H117       30.9198    5.1250   -9.0734 H         1 UNK         0.0810 
    118 H118       29.3589    5.3622   -8.3031 H         1 UNK         0.0810 
    119 H119       29.4559    5.0975  -10.0432 H         1 UNK         0.0810 
    120 H120       29.1854    2.8516  -11.2669 H         1 UNK         0.3040 
    121 H121       31.7054    1.9917  -12.3206 H         1 UNK         0.0766 
    122 H122       30.3456    1.4521  -14.3550 H         1 UNK         0.0812 
    123 H123       29.9422    3.0391  -13.7220 H         1 UNK         0.0812 
    124 H124       28.8629    1.6740  -13.4353 H         1 UNK         0.0812 
    125 H125       29.1883    0.2337  -10.6759 H         1 UNK         0.3205 
    126 H126       29.8863   -2.4156  -11.6134 H         1 UNK         0.0754 
    127 H127       28.2612   -1.4531   -9.2141 H         1 UNK         0.0769 
    128 H128       28.4060   -3.1366   -9.7015 H         1 UNK         0.0769 
    129 H129       27.6253   -1.9787  -10.7687 H         1 UNK         0.0769 
    130 H130       30.7167   -0.4681   -8.6828 H         1 UNK         0.2981 
    131 H131       32.5214   -2.5409   -7.7126 H         1 UNK         0.0541 
    132 H132       32.9358    0.6482   -9.4368 H         1 UNK         0.3459 
    133 H133       34.6181    0.3335   -9.8033 H         1 UNK         0.3459 
    134 H134       31.1784   -0.8940   -6.2091 H         1 UNK         0.0612 
    135 H135       32.3888    0.2898   -6.5996 H         1 UNK         0.0612 
    136 H136       32.8426   -3.7394   -4.5549 H         1 UNK         0.0624 
    137 H137       31.4142   -3.0539   -5.2705 H         1 UNK         0.0624 
@<TRIPOS>BOND
     1    1    2 1    
     2    1   72 1    
     3    1   73 1    
     4    1   74 1    
     5    2    3 2    
     6    2    4 am   BACKBONE|DICT|INTERRES
     7    4    5 1    
     8    4   75 1    
     9    5    6 1    
    10    5   35 1    
    11    5   76 1    
    12    6    7 1    
    13    6   77 1    
    14    6   78 1    
    15    7    8 1    
    16    8    9 1    
    17    8   79 1    
    18    8   80 1    
    19    9   10 ar   
    20    9   14 ar   
    21   10   11 ar   
    22   10   81 1    
    23   11   12 ar   
    24   11   71 1    
    25   12   13 ar   
    26   12   82 1    
    27   13   14 ar   
    28   13   15 1    
    29   14   83 1    
    30   15   16 1    
    31   15   84 1    
    32   15   85 1    
    33   16   17 1    
    34   17   18 1    
    35   17   86 1    
    36   17   87 1    
    37   18   19 1    
    38   18   37 1    
    39   18   88 1    
    40   19   20 am   BACKBONE|DICT|INTERRES
    41   19   89 1    
    42   20   21 2    
    43   20   22 1    
    44   22   23 1    
    45   22   24 1    
    46   22   90 1    
    47   23   91 1    
    48   23   92 1    
    49   23   93 1    
    50   24   25 am   BACKBONE|DICT|INTERRES
    51   24   94 1    
    52   25   26 2    
    53   25   27 1    
    54   27   28 1    
    55   27   29 1    
    56   27   95 1    
    57   28   96 1    
    58   28   97 1    
    59   28   98 1    
    60   29   30 am   BACKBONE|DICT|INTERRES
    61   29   99 1    
    62   30   31 2    
    63   30   32 1    
    64   32   33 1    
    65   32   34 1    
    66   32  100 1    
    67   33  101 1    
    68   33  102 1    
    69   33  103 1    
    70   34   35 am   BACKBONE|DICT|INTERRES
    71   34  104 1    
    72   35   36 2    
    73   37   38 2    
    74   37   39 am   BACKBONE|DICT|INTERRES
    75   39   40 1    
    76   39  105 1    
    77   40   41 1    
    78   40   42 1    
    79   40  106 1    
    80   41  107 1    
    81   41  108 1    
    82   41  109 1    
    83   42   43 2    
    84   42   44 am   BACKBONE|DICT|INTERRES
    85   44   45 1    
    86   44  110 1    
    87   45   46 1    
    88   45   47 1    
    89   45  111 1    
    90   46  112 1    
    91   46  113 1    
    92   46  114 1    
    93   47   48 2    
    94   47   49 am   BACKBONE|DICT|INTERRES
    95   49   50 1    
    96   49  115 1    
    97   50   51 1    
    98   50   52 1    
    99   50  116 1    
   100   51  117 1    
   101   51  118 1    
   102   51  119 1    
   103   52   53 2    
   104   52   54 am   BACKBONE|DICT|INTERRES
   105   54   55 1    
   106   54  120 1    
   107   55   56 1    
   108   55   57 1    
   109   55  121 1    
   110   56  122 1    
   111   56  123 1    
   112   56  124 1    
   113   57   58 2    
   114   57   59 am   BACKBONE|DICT|INTERRES
   115   59   60 1    
   116   59  125 1    
   117   60   61 1    
   118   60   62 1    
   119   60  126 1    
   120   61  127 1    
   121   61  128 1    
   122   61  129 1    
   123   62   63 2    
   124   62   64 am   BACKBONE|DICT|INTERRES
   125   64   65 1    
   126   64  130 1    
   127   65   66 1    
   128   65   69 1    
   129   65  131 1    
   130   66   67 am   BACKBONE|DICT|INTERRES
   131   66   68 2    
   132   67  132 1    
   133   67  133 1    
   134   69   70 1    
   135   69  134 1    
   136   69  135 1    
   137   70   71 1    
   138   71  136 1    
   139   71  137 1    
@<TRIPOS>SUBSTRUCTURE
     1 UNK         1 GROUP             0       ****    0 ROOT    
