@<TRIPOS>MOLECULE
3R137
137   139    1
SMALL
USER_CHARGES


@<TRIPOS>ATOM
      1 CA         30.3554   -5.5755   -1.3131 C.3       0 UNK        -0.2020 
      2 C          29.5552   -4.7428   -0.3248 C.2       0 UNK         0.4855 
      3 O          29.0838   -5.2671    0.6844 O.2       0 UNK        -0.5197 
      4 N          29.4050   -3.4429   -0.6081 N.am      1 UNK        -0.4892 
      5 CA         28.6928   -2.4691    0.2334 C.3       1 UNK         0.0835 
      6 C6         28.9393   -1.0039   -0.2162 C.3       12 UNK        -0.0855 
      7 S7         30.6917   -0.5914   -0.5161 S.3       12 UNK        -0.2931 
      8 C8         30.6858   -0.3057   -2.3168 C.3       12 UNK         0.0378 
      9 C9         30.5801   -1.6071   -3.0999 C.ar      12 UNK        -0.0802 
     10 C10        31.7308   -2.3626   -3.3414 C.ar      12 UNK        -0.0944 
     11 C11        31.6614   -3.5442   -4.0835 C.ar      12 UNK        -0.0787 
     12 C12        30.4253   -3.9801   -4.5681 C.ar      12 UNK        -0.0862 
     13 C13        29.2653   -3.2361   -4.3336 C.ar      12 UNK        -0.0733 
     14 C14        29.3490   -2.0446   -3.6039 C.ar      12 UNK        -0.0832 
     15 C15        27.9235   -3.7230   -4.8707 C.3       12 UNK         0.0240 
     16 S16        27.8862   -3.7976   -6.6940 S.3       12 UNK        -0.2522 
     17 C17        28.1743   -2.0484   -7.1281 C.3       12 UNK        -0.0967 
     18 CA         27.0582   -1.3915   -7.9854 C.3       5 UNK         0.0660 
     19 N          25.6882   -1.6506   -7.5077 N.am      5 UNK        -0.4015 
     20 C          25.1885   -1.4228   -6.2857 C.2       4 UNK         0.4946 
     21 O          25.8094   -0.8186   -5.4090 O.2       4 UNK        -0.5353 
     22 CA         23.7720   -1.9705   -6.0136 C.3       4 UNK         0.0277 
     23 CB         23.6697   -3.4677   -6.3666 C.3       4 UNK        -0.1981 
     24 N          23.3879   -1.8121   -4.6109 N.am      4 UNK        -0.4209 
     25 C          22.9758   -0.6790   -4.0269 C.2       3 UNK         0.4942 
     26 O          22.7491    0.3654   -4.6402 O.2       3 UNK        -0.5208 
     27 CA         22.7625   -0.7200   -2.4981 C.3       3 UNK         0.0250 
     28 CB         21.2612   -0.7219   -2.1638 C.3       3 UNK        -0.1990 
     29 N          23.4005   -1.8700   -1.8406 N.am      3 UNK        -0.4232 
     30 C          24.7235   -2.0127   -1.6797 C.2       2 UNK         0.4993 
     31 O          25.5461   -1.1567   -2.0141 O.2       2 UNK        -0.5286 
     32 CA         25.2001   -3.3555   -1.0922 C.3       2 UNK         0.0209 
     33 CB         24.9492   -4.5068   -2.0838 C.3       2 UNK        -0.1931 
     34 N          26.6310   -3.3084   -0.7935 N.am      2 UNK        -0.4546 
     35 C          27.1700   -2.7170    0.2806 C.2       1 UNK         0.5154 
     36 O          26.5169   -2.3343    1.2533 O.2       1 UNK        -0.5181 
     37 C          27.3800    0.1039   -8.2001 C.2       5 UNK         0.5014 
     38 O          28.1075    0.4344   -9.1389 O.2       5 UNK        -0.5248 
     39 N          26.8426    0.9815   -7.3417 N.am      6 UNK        -0.4434 
     40 CA         27.0541    2.4335   -7.3164 C.3       6 UNK         0.0363 
     41 CB         26.2575    3.0364   -6.1495 C.3       6 UNK        -0.1936 
     42 C          26.7163    3.1596   -8.6304 C.2       6 UNK         0.5081 
     43 O          27.3350    4.1814   -8.9259 O.2       6 UNK        -0.5248 
     44 N          25.7990    2.5951   -9.4288 N.am      7 UNK        -0.4718 
     45 CA         25.4705    3.0476  -10.7863 C.3       7 UNK         0.0273 
     46 CB         24.2704    2.2414  -11.3081 C.3       7 UNK        -0.1935 
     47 C          26.6504    2.9576  -11.7765 C.2       7 UNK         0.5018 
     48 O          26.6719    3.7082  -12.7523 O.2       7 UNK        -0.5186 
     49 N          27.6127    2.0678  -11.4970 N.am      8 UNK        -0.4240 
     50 CA         28.8751    1.9140  -12.2217 C.3       8 UNK         0.0235 
     51 CB         29.0368    0.4323  -12.6096 C.3       8 UNK        -0.2000 
     52 C          30.0692    2.4126  -11.3815 C.2       8 UNK         0.4941 
     53 O          31.2038    2.0338  -11.6722 O.2       8 UNK        -0.5273 
     54 N          29.7999    3.2265  -10.3461 N.am      9 UNK        -0.4262 
     55 CA         30.7352    3.7850   -9.3574 C.3       9 UNK         0.0264 
     56 CB         31.8232    4.6484  -10.0316 C.3       9 UNK        -0.1955 
     57 C          31.3297    2.7549   -8.3727 C.2       9 UNK         0.5031 
     58 O          32.2124    3.1210   -7.5942 O.2       9 UNK        -0.5390 
     59 N          30.8128    1.5169   -8.3861 N.am      10 UNK        -0.4204 
     60 CA         31.1820    0.3742   -7.5439 C.3       10 UNK         0.0237 
     61 CB         30.7341    0.6167   -6.0862 C.3       10 UNK        -0.1985 
     62 C          32.6576   -0.0618   -7.6696 C.2       10 UNK         0.4970 
     63 O          33.3265    0.2873   -8.6452 O.2       10 UNK        -0.4914 
     64 N          33.1210   -0.8737   -6.7104 N.am      11 UNK        -0.4285 
     65 CA         34.5059   -1.3564   -6.6162 C.3       11 UNK         0.1007 
     66 C          35.5097   -0.2075   -6.3241 C.2       11 UNK         0.5703 
     67 N          36.6842   -0.2354   -6.9395 N.am      11 UNK        -0.7361 
     68 O          35.2510    0.6781   -5.5109 O.2       11 UNK        -0.4986 
     69 C69        34.6508   -2.4812   -5.5589 C.3       12 UNK        -0.0947 
     70 S70        33.6625   -3.9628   -5.9575 S.3       12 UNK        -0.2240 
     71 C71        32.9133   -4.3664   -4.3479 C.3       12 UNK         0.0194 
     72 H72        30.6947   -6.5020   -0.8503 H         1 UNK         0.0906 
     73 H73        29.7436   -5.8303   -2.1781 H         1 UNK         0.0906 
     74 H74        31.2354   -5.0329   -1.6564 H         1 UNK         0.0906 
     75 H75        29.8464   -3.0572   -1.4337 H         1 UNK         0.3140 
     76 H76        29.0700   -2.5812    1.2523 H         1 UNK         0.1085 
     77 H77        28.3608   -0.7712   -1.1124 H         1 UNK         0.0836 
     78 H78        28.5698   -0.3185    0.5493 H         1 UNK         0.0836 
     79 H79        29.8755    0.3747   -2.5841 H         1 UNK         0.0731 
     80 H80        31.6085    0.2078   -2.5917 H         1 UNK         0.0731 
     81 H81        32.6811   -2.0265   -2.9498 H         1 UNK         0.1312 
     82 H82        30.3657   -4.8968   -5.1391 H         1 UNK         0.1406 
     83 H83        28.4553   -1.4574   -3.4333 H         1 UNK         0.1631 
     84 H84        27.7220   -4.7188   -4.4739 H         1 UNK         0.0717 
     85 H85        27.1108   -3.0838   -4.5230 H         1 UNK         0.0717 
     86 H86        28.3390   -1.4701   -6.2179 H         1 UNK         0.0934 
     87 H87        29.1168   -2.0272   -7.6730 H         1 UNK         0.0934 
     88 H88        27.1007   -1.8517   -8.9740 H         1 UNK         0.0739 
     89 H89        25.0955   -2.1227   -8.1755 H         1 UNK         0.3093 
     90 H90        23.0694   -1.4107   -6.6346 H         1 UNK         0.0818 
     91 H91        22.6887   -3.8692   -6.1107 H         1 UNK         0.0819 
     92 H92        23.8094   -3.6420   -7.4338 H         1 UNK         0.0819 
     93 H93        24.4200   -4.0589   -5.8389 H         1 UNK         0.0819 
     94 H94        23.5677   -2.6004   -4.0095 H         1 UNK         0.3041 
     95 H95        23.2022    0.1923   -2.0887 H         1 UNK         0.0784 
     96 H96        20.7614    0.1407   -2.6071 H         1 UNK         0.0793 
     97 H97        20.7637   -1.6159   -2.5420 H         1 UNK         0.0793 
     98 H98        21.0934   -0.6719   -1.0877 H         1 UNK         0.0793 
     99 H99        22.7857   -2.6103   -1.5320 H         1 UNK         0.3024 
    100 H100       24.6476   -3.5469   -0.1691 H         1 UNK         0.1171 
    101 H101       23.8842   -4.6435   -2.2745 H         1 UNK         0.0786 
    102 H102       25.4331   -4.3283   -3.0447 H         1 UNK         0.0786 
    103 H103       25.3248   -5.4528   -1.6929 H         1 UNK         0.0786 
    104 H104       27.2580   -3.5626   -1.5416 H         1 UNK         0.2977 
    105 H105       26.3172    0.5829   -6.5661 H         1 UNK         0.3127 
    106 H106       28.1162    2.5997   -7.1260 H         1 UNK         0.0770 
    107 H107       25.1861    2.8649   -6.2621 H         1 UNK         0.0814 
    108 H108       26.4118    4.1145   -6.0849 H         1 UNK         0.0814 
    109 H109       26.5663    2.6083   -5.1955 H         1 UNK         0.0814 
    110 H110       25.3398    1.7568   -9.1033 H         1 UNK         0.2983 
    111 H111       25.1802    4.0988  -10.7251 H         1 UNK         0.0947 
    112 H112       23.9819    2.5733  -12.3066 H         1 UNK         0.0806 
    113 H113       23.3988    2.3638  -10.6647 H         1 UNK         0.0806 
    114 H114       24.4960    1.1761  -11.3718 H         1 UNK         0.0806 
    115 H115       27.5260    1.5015  -10.6569 H         1 UNK         0.3000 
    116 H116       28.8636    2.5075  -13.1380 H         1 UNK         0.0850 
    117 H117       29.9338    0.2767  -13.2105 H         1 UNK         0.0810 
    118 H118       28.1901    0.0835  -13.2009 H         1 UNK         0.0810 
    119 H119       29.1170   -0.2072  -11.7294 H         1 UNK         0.0810 
    120 H120       28.8307    3.4816  -10.1862 H         1 UNK         0.3040 
    121 H121       30.1327    4.4548   -8.7420 H         1 UNK         0.0766 
    122 H122       31.3865    5.3802  -10.7109 H         1 UNK         0.0812 
    123 H123       32.5307    4.0420  -10.5975 H         1 UNK         0.0812 
    124 H124       32.3983    5.2018   -9.2883 H         1 UNK         0.0812 
    125 H125       30.0794    1.3253   -9.0583 H         1 UNK         0.3205 
    126 H126       30.6075   -0.4590   -7.9406 H         1 UNK         0.0754 
    127 H127       31.3598    1.3589   -5.5888 H         1 UNK         0.0769 
    128 H128       30.7797   -0.3010   -5.5033 H         1 UNK         0.0769 
    129 H129       29.7025    0.9648   -6.0390 H         1 UNK         0.0769 
    130 H130       32.5136   -1.1337   -5.9484 H         1 UNK         0.2981 
    131 H131       34.7613   -1.7808   -7.5894 H         1 UNK         0.0541 
    132 H132       36.9114   -0.9647   -7.5977 H         1 UNK         0.3459 
    133 H133       37.3543    0.4929   -6.7485 H         1 UNK         0.3459 
    134 H134       34.3835   -2.1074   -4.5700 H         1 UNK         0.0612 
    135 H135       35.6915   -2.8028   -5.4873 H         1 UNK         0.0612 
    136 H136       33.6454   -4.2266   -3.5510 H         1 UNK         0.0624 
    137 H137       32.6590   -5.4273   -4.3400 H         1 UNK         0.0624 
@<TRIPOS>BOND
     1    1    2 1    
     2    1   72 1    
     3    1   73 1    
     4    1   74 1    
     5    2    3 2    
     6    2    4 am   BACKBONE|DICT|INTERRES
     7    4    5 1    
     8    4   75 1    
     9    5    6 1    
    10    5   35 1    
    11    5   76 1    
    12    6    7 1    
    13    6   77 1    
    14    6   78 1    
    15    7    8 1    
    16    8    9 1    
    17    8   79 1    
    18    8   80 1    
    19    9   10 ar   
    20    9   14 ar   
    21   10   11 ar   
    22   10   81 1    
    23   11   12 ar   
    24   11   71 1    
    25   12   13 ar   
    26   12   82 1    
    27   13   14 ar   
    28   13   15 1    
    29   14   83 1    
    30   15   16 1    
    31   15   84 1    
    32   15   85 1    
    33   16   17 1    
    34   17   18 1    
    35   17   86 1    
    36   17   87 1    
    37   18   19 1    
    38   18   37 1    
    39   18   88 1    
    40   19   20 am   BACKBONE|DICT|INTERRES
    41   19   89 1    
    42   20   21 2    
    43   20   22 1    
    44   22   23 1    
    45   22   24 1    
    46   22   90 1    
    47   23   91 1    
    48   23   92 1    
    49   23   93 1    
    50   24   25 am   BACKBONE|DICT|INTERRES
    51   24   94 1    
    52   25   26 2    
    53   25   27 1    
    54   27   28 1    
    55   27   29 1    
    56   27   95 1    
    57   28   96 1    
    58   28   97 1    
    59   28   98 1    
    60   29   30 am   BACKBONE|DICT|INTERRES
    61   29   99 1    
    62   30   31 2    
    63   30   32 1    
    64   32   33 1    
    65   32   34 1    
    66   32  100 1    
    67   33  101 1    
    68   33  102 1    
    69   33  103 1    
    70   34   35 am   BACKBONE|DICT|INTERRES
    71   34  104 1    
    72   35   36 2    
    73   37   38 2    
    74   37   39 am   BACKBONE|DICT|INTERRES
    75   39   40 1    
    76   39  105 1    
    77   40   41 1    
    78   40   42 1    
    79   40  106 1    
    80   41  107 1    
    81   41  108 1    
    82   41  109 1    
    83   42   43 2    
    84   42   44 am   BACKBONE|DICT|INTERRES
    85   44   45 1    
    86   44  110 1    
    87   45   46 1    
    88   45   47 1    
    89   45  111 1    
    90   46  112 1    
    91   46  113 1    
    92   46  114 1    
    93   47   48 2    
    94   47   49 am   BACKBONE|DICT|INTERRES
    95   49   50 1    
    96   49  115 1    
    97   50   51 1    
    98   50   52 1    
    99   50  116 1    
   100   51  117 1    
   101   51  118 1    
   102   51  119 1    
   103   52   53 2    
   104   52   54 am   BACKBONE|DICT|INTERRES
   105   54   55 1    
   106   54  120 1    
   107   55   56 1    
   108   55   57 1    
   109   55  121 1    
   110   56  122 1    
   111   56  123 1    
   112   56  124 1    
   113   57   58 2    
   114   57   59 am   BACKBONE|DICT|INTERRES
   115   59   60 1    
   116   59  125 1    
   117   60   61 1    
   118   60   62 1    
   119   60  126 1    
   120   61  127 1    
   121   61  128 1    
   122   61  129 1    
   123   62   63 2    
   124   62   64 am   BACKBONE|DICT|INTERRES
   125   64   65 1    
   126   64  130 1    
   127   65   66 1    
   128   65   69 1    
   129   65  131 1    
   130   66   67 am   BACKBONE|DICT|INTERRES
   131   66   68 2    
   132   67  132 1    
   133   67  133 1    
   134   69   70 1    
   135   69  134 1    
   136   69  135 1    
   137   70   71 1    
   138   71  136 1    
   139   71  137 1    
@<TRIPOS>SUBSTRUCTURE
     1 UNK         1 GROUP             0       ****    0 ROOT    
