@<TRIPOS>MOLECULE
3R137
137   139    1
SMALL
USER_CHARGES


@<TRIPOS>ATOM
      1 CA         27.6566   -7.0851    0.4448 C.3       0 UNK        -0.2020 
      2 C          27.4675   -5.6850   -0.1177 C.2       0 UNK         0.4855 
      3 O          27.4374   -5.5205   -1.3366 O.2       0 UNK        -0.5197 
      4 N          27.3364   -4.6830    0.7629 N.am      1 UNK        -0.4892 
      5 CA         27.1621   -3.2432    0.5007 C.3       1 UNK         0.0835 
      6 C6         28.3173   -2.5849   -0.2966 C.3       12 UNK        -0.0855 
      7 S7         29.9651   -2.7932    0.4744 S.3       12 UNK        -0.2931 
      8 C8         30.8347   -3.9186   -0.6742 C.3       12 UNK         0.0378 
      9 C9         30.8474   -3.3856   -2.1002 C.ar      12 UNK        -0.0802 
     10 C10        31.6541   -2.2989   -2.4502 C.ar      12 UNK        -0.0944 
     11 C11        31.5914   -1.7430   -3.7335 C.ar      12 UNK        -0.0787 
     12 C12        30.7054   -2.2959   -4.6688 C.ar      12 UNK        -0.0862 
     13 C13        29.8885   -3.3763   -4.3243 C.ar      12 UNK        -0.0733 
     14 C14        29.9931   -3.9409   -3.0543 C.ar      12 UNK        -0.0832 
     15 C15        28.8311   -3.8854   -5.2875 C.3       12 UNK         0.0240 
     16 S16        27.1839   -3.2805   -4.7831 S.3       12 UNK        -0.2522 
     17 C17        26.3267   -3.2104   -6.3941 C.3       12 UNK        -0.0967 
     18 CA         26.2440   -1.8028   -7.0452 C.3       5 UNK         0.0660 
     19 N          25.1517   -0.9792   -6.5170 N.am      5 UNK        -0.4015 
     20 C          24.7753    0.1845   -7.0737 C.2       4 UNK         0.4946 
     21 O          25.2487    0.6094   -8.1300 O.2       4 UNK        -0.5353 
     22 CA         23.7532    1.0609   -6.3296 C.3       4 UNK         0.0277 
     23 CB         22.3824    0.9828   -7.0201 C.3       4 UNK        -0.1981 
     24 N          23.5901    0.7649   -4.9042 N.am      4 UNK        -0.4209 
     25 C          24.5478    0.7631   -3.9648 C.2       3 UNK         0.4942 
     26 O          25.7386    0.9826   -4.1925 O.2       3 UNK        -0.5208 
     27 CA         24.0948    0.4370   -2.5287 C.3       3 UNK         0.0250 
     28 CB         22.6242    0.8204   -2.2526 C.3       3 UNK        -0.1990 
     29 N          24.3136   -0.9582   -2.1260 N.am      3 UNK        -0.4232 
     30 C          24.0883   -2.0888   -2.8130 C.2       2 UNK         0.4993 
     31 O          23.7718   -2.1238   -4.0051 O.2       2 UNK        -0.5286 
     32 CA         24.2080   -3.4052   -2.0126 C.3       2 UNK         0.0209 
     33 CB         24.0283   -4.6560   -2.8940 C.3       2 UNK        -0.1931 
     34 N          25.4613   -3.5378   -1.2620 N.am      2 UNK        -0.4546 
     35 C          25.7985   -2.8964   -0.1363 C.2       1 UNK         0.5154 
     36 O          25.0777   -2.0520    0.3983 O.2       1 UNK        -0.5181 
     37 C          27.5973   -1.0521   -7.0659 C.2       5 UNK         0.5014 
     38 O          28.4011   -1.3109   -7.9589 O.2       5 UNK        -0.5248 
     39 N          27.8141   -0.1145   -6.1276 N.am      6 UNK        -0.4434 
     40 CA         29.0051    0.7367   -6.0778 C.3       6 UNK         0.0363 
     41 CB         29.0815    1.4491   -4.7201 C.3       6 UNK        -0.1936 
     42 C          29.0784    1.7427   -7.2349 C.2       6 UNK         0.5081 
     43 O          30.1788    2.0521   -7.6935 O.2       6 UNK        -0.5248 
     44 N          27.9154    2.2083   -7.7107 N.am      7 UNK        -0.4718 
     45 CA         27.8004    3.0478   -8.9026 C.3       7 UNK         0.0273 
     46 CB         26.4502    3.7827   -8.9004 C.3       7 UNK        -0.1935 
     47 C          27.9811    2.2215  -10.1846 C.2       7 UNK         0.5018 
     48 O          28.6679    2.6776  -11.0979 O.2       7 UNK        -0.5186 
     49 N          27.3971    1.0132  -10.2156 N.am      8 UNK        -0.4240 
     50 CA         27.5158    0.0595  -11.3237 C.3       8 UNK         0.0235 
     51 CB         26.5364   -1.1065  -11.1155 C.3       8 UNK        -0.2000 
     52 C          28.9516   -0.4602  -11.5178 C.2       8 UNK         0.4941 
     53 O          29.4320   -0.4986  -12.6510 O.2       8 UNK        -0.5273 
     54 N          29.6176   -0.8254  -10.4129 N.am      9 UNK        -0.4262 
     55 CA         31.0207   -1.2500  -10.3812 C.3       9 UNK         0.0264 
     56 CB         31.2968   -1.9820   -9.0569 C.3       9 UNK        -0.1955 
     57 C          32.0149   -0.0881  -10.5568 C.2       9 UNK         0.5031 
     58 O          33.1745   -0.3463  -10.8829 O.2       9 UNK        -0.5390 
     59 N          31.5506    1.1502  -10.3294 N.am      10 UNK        -0.4204 
     60 CA         32.2976    2.4103  -10.3520 C.3       10 UNK         0.0237 
     61 CB         32.7917    2.7373  -11.7776 C.3       10 UNK        -0.1985 
     62 C          33.4165    2.4273   -9.2951 C.2       10 UNK         0.4970 
     63 O          34.5854    2.6304   -9.6308 O.2       10 UNK        -0.4914 
     64 N          33.0292    2.2024   -8.0326 N.am      11 UNK        -0.4285 
     65 CA         33.9307    2.2129   -6.8677 C.3       11 UNK         0.1007 
     66 C          34.5480    3.6048   -6.5372 C.2       11 UNK         0.5703 
     67 N          33.9856    4.7126   -7.0073 N.am      11 UNK        -0.7361 
     68 O          35.5590    3.6776   -5.8425 O.2       11 UNK        -0.4986 
     69 C69        33.2530    1.6217   -5.6053 C.3       12 UNK        -0.0947 
     70 S70        32.7386   -0.1182   -5.7795 S.3       12 UNK        -0.2240 
     71 C71        32.4181   -0.4887   -4.0199 C.3       12 UNK         0.0194 
     72 H72        28.5993   -7.5041    0.0941 H         1 UNK         0.0906 
     73 H73        27.6674   -7.0912    1.5345 H         1 UNK         0.0906 
     74 H74        26.8491   -7.7354    0.1094 H         1 UNK         0.0906 
     75 H75        27.3523   -4.9168    1.7464 H         1 UNK         0.3140 
     76 H76        27.1542   -2.7760    1.4872 H         1 UNK         0.1085 
     77 H77        28.1448   -1.5100   -0.3804 H         1 UNK         0.0836 
     78 H78        28.3181   -2.9524   -1.3203 H         1 UNK         0.0836 
     79 H79        31.8604   -4.0551   -0.3290 H         1 UNK         0.0731 
     80 H80        30.3660   -4.9028   -0.6334 H         1 UNK         0.0731 
     81 H81        32.3002   -1.8573   -1.7034 H         1 UNK         0.1312 
     82 H82        30.6141   -1.8719   -5.6565 H         1 UNK         0.1406 
     83 H83        29.3477   -4.7661   -2.7875 H         1 UNK         0.1631 
     84 H84        29.0633   -3.5588   -6.3023 H         1 UNK         0.0717 
     85 H85        28.8283   -4.9762   -5.3047 H         1 UNK         0.0717 
     86 H86        26.8199   -3.8994   -7.0821 H         1 UNK         0.0934 
     87 H87        25.3227   -3.6166   -6.2599 H         1 UNK         0.0934 
     88 H88        25.9851   -1.9754   -8.0912 H         1 UNK         0.0739 
     89 H89        24.7238   -1.2799   -5.6458 H         1 UNK         0.3093 
     90 H90        24.1130    2.0893   -6.4018 H         1 UNK         0.0818 
     91 H91        21.6744    1.6864   -6.5817 H         1 UNK         0.0819 
     92 H92        22.4636    1.2285   -8.0802 H         1 UNK         0.0819 
     93 H93        21.9524   -0.0172   -6.9496 H         1 UNK         0.0819 
     94 H94        22.6566    0.5205   -4.6074 H         1 UNK         0.3041 
     95 H95        24.7195    1.0463   -1.8737 H         1 UNK         0.0784 
     96 H96        22.4168    1.8474   -2.5575 H         1 UNK         0.0793 
     97 H97        21.9217    0.1674   -2.7718 H         1 UNK         0.0793 
     98 H98        22.4002    0.7555   -1.1876 H         1 UNK         0.0793 
     99 H99        24.5984   -1.0870   -1.1582 H         1 UNK         0.3024 
    100 H100       23.3874   -3.3959   -1.2917 H         1 UNK         0.1171 
    101 H101       24.0410   -5.5675   -2.2963 H         1 UNK         0.0786 
    102 H102       23.0749   -4.6315   -3.4235 H         1 UNK         0.0786 
    103 H103       24.8163   -4.7372   -3.6430 H         1 UNK         0.0786 
    104 H104       26.1309   -4.2226   -1.6083 H         1 UNK         0.2977 
    105 H105       27.0977    0.0624   -5.4291 H         1 UNK         0.3127 
    106 H106       29.8788    0.0967   -6.1739 H         1 UNK         0.0770 
    107 H107       28.2255    2.1052   -4.5591 H         1 UNK         0.0814 
    108 H108       29.9808    2.0620   -4.6515 H         1 UNK         0.0814 
    109 H109       29.1151    0.7312   -3.9001 H         1 UNK         0.0814 
    110 H110       27.0540    1.8638   -7.3091 H         1 UNK         0.2983 
    111 H111       28.5930    3.7994   -8.8756 H         1 UNK         0.0947 
    112 H112       26.3712    4.4488   -9.7606 H         1 UNK         0.0806 
    113 H113       26.3336    4.3947   -8.0060 H         1 UNK         0.0806 
    114 H114       25.6070    3.0933   -8.9471 H         1 UNK         0.0806 
    115 H115       26.8075    0.7442   -9.4337 H         1 UNK         0.3000 
    116 H116       27.2269    0.5840  -12.2371 H         1 UNK         0.0850 
    117 H117       26.5286   -1.7651  -11.9849 H         1 UNK         0.0810 
    118 H118       25.5165   -0.7506  -10.9675 H         1 UNK         0.0810 
    119 H119       26.8097   -1.7142  -10.2535 H         1 UNK         0.0810 
    120 H120       29.1236   -0.8433   -9.5200 H         1 UNK         0.3040 
    121 H121       31.1855   -1.9516  -11.2016 H         1 UNK         0.0766 
    122 H122       30.6388   -2.8422   -8.9324 H         1 UNK         0.0812 
    123 H123       31.1530   -1.3242   -8.1988 H         1 UNK         0.0812 
    124 H124       32.3232   -2.3488   -9.0168 H         1 UNK         0.0812 
    125 H125       30.5860    1.2319  -10.0381 H         1 UNK         0.3205 
    126 H126       31.5891    3.1891  -10.0650 H         1 UNK         0.0754 
    127 H127       33.2604    3.7215  -11.8105 H         1 UNK         0.0769 
    128 H128       31.9648    2.7477  -12.4880 H         1 UNK         0.0769 
    129 H129       33.5283    2.0151  -12.1311 H         1 UNK         0.0769 
    130 H130       32.0399    2.0594   -7.8402 H         1 UNK         0.2981 
    131 H131       34.7738    1.5660   -7.1175 H         1 UNK         0.0541 
    132 H132       33.1521    4.6635   -7.5702 H         1 UNK         0.3459 
    133 H133       34.3971    5.6062   -6.7889 H         1 UNK         0.3459 
    134 H134       33.9331    1.6763   -4.7526 H         1 UNK         0.0612 
    135 H135       32.3762    2.2136   -5.3366 H         1 UNK         0.0612 
    136 H136       31.8928    0.3578   -3.5757 H         1 UNK         0.0624 
    137 H137       33.3806   -0.5595   -3.5109 H         1 UNK         0.0624 
@<TRIPOS>BOND
     1    1    2 1    
     2    1   72 1    
     3    1   73 1    
     4    1   74 1    
     5    2    3 2    
     6    2    4 am   BACKBONE|DICT|INTERRES
     7    4    5 1    
     8    4   75 1    
     9    5    6 1    
    10    5   35 1    
    11    5   76 1    
    12    6    7 1    
    13    6   77 1    
    14    6   78 1    
    15    7    8 1    
    16    8    9 1    
    17    8   79 1    
    18    8   80 1    
    19    9   10 ar   
    20    9   14 ar   
    21   10   11 ar   
    22   10   81 1    
    23   11   12 ar   
    24   11   71 1    
    25   12   13 ar   
    26   12   82 1    
    27   13   14 ar   
    28   13   15 1    
    29   14   83 1    
    30   15   16 1    
    31   15   84 1    
    32   15   85 1    
    33   16   17 1    
    34   17   18 1    
    35   17   86 1    
    36   17   87 1    
    37   18   19 1    
    38   18   37 1    
    39   18   88 1    
    40   19   20 am   BACKBONE|DICT|INTERRES
    41   19   89 1    
    42   20   21 2    
    43   20   22 1    
    44   22   23 1    
    45   22   24 1    
    46   22   90 1    
    47   23   91 1    
    48   23   92 1    
    49   23   93 1    
    50   24   25 am   BACKBONE|DICT|INTERRES
    51   24   94 1    
    52   25   26 2    
    53   25   27 1    
    54   27   28 1    
    55   27   29 1    
    56   27   95 1    
    57   28   96 1    
    58   28   97 1    
    59   28   98 1    
    60   29   30 am   BACKBONE|DICT|INTERRES
    61   29   99 1    
    62   30   31 2    
    63   30   32 1    
    64   32   33 1    
    65   32   34 1    
    66   32  100 1    
    67   33  101 1    
    68   33  102 1    
    69   33  103 1    
    70   34   35 am   BACKBONE|DICT|INTERRES
    71   34  104 1    
    72   35   36 2    
    73   37   38 2    
    74   37   39 am   BACKBONE|DICT|INTERRES
    75   39   40 1    
    76   39  105 1    
    77   40   41 1    
    78   40   42 1    
    79   40  106 1    
    80   41  107 1    
    81   41  108 1    
    82   41  109 1    
    83   42   43 2    
    84   42   44 am   BACKBONE|DICT|INTERRES
    85   44   45 1    
    86   44  110 1    
    87   45   46 1    
    88   45   47 1    
    89   45  111 1    
    90   46  112 1    
    91   46  113 1    
    92   46  114 1    
    93   47   48 2    
    94   47   49 am   BACKBONE|DICT|INTERRES
    95   49   50 1    
    96   49  115 1    
    97   50   51 1    
    98   50   52 1    
    99   50  116 1    
   100   51  117 1    
   101   51  118 1    
   102   51  119 1    
   103   52   53 2    
   104   52   54 am   BACKBONE|DICT|INTERRES
   105   54   55 1    
   106   54  120 1    
   107   55   56 1    
   108   55   57 1    
   109   55  121 1    
   110   56  122 1    
   111   56  123 1    
   112   56  124 1    
   113   57   58 2    
   114   57   59 am   BACKBONE|DICT|INTERRES
   115   59   60 1    
   116   59  125 1    
   117   60   61 1    
   118   60   62 1    
   119   60  126 1    
   120   61  127 1    
   121   61  128 1    
   122   61  129 1    
   123   62   63 2    
   124   62   64 am   BACKBONE|DICT|INTERRES
   125   64   65 1    
   126   64  130 1    
   127   65   66 1    
   128   65   69 1    
   129   65  131 1    
   130   66   67 am   BACKBONE|DICT|INTERRES
   131   66   68 2    
   132   67  132 1    
   133   67  133 1    
   134   69   70 1    
   135   69  134 1    
   136   69  135 1    
   137   70   71 1    
   138   71  136 1    
   139   71  137 1    
@<TRIPOS>SUBSTRUCTURE
     1 UNK         1 GROUP             0       ****    0 ROOT    
