@<TRIPOS>MOLECULE
3R137
137   139    1
SMALL
USER_CHARGES


@<TRIPOS>ATOM
      1 CA         30.1884   -6.0682   -7.4098 C.3       0 UNK        -0.2020 
      2 C          29.2310   -6.4971   -6.3076 C.2       0 UNK         0.4855 
      3 O          28.4746   -7.4514   -6.4874 O.2       0 UNK        -0.5197 
      4 N          29.2571   -5.7960   -5.1675 N.am      1 UNK        -0.4892 
      5 CA         28.3740   -6.0111   -4.0117 C.3       1 UNK         0.0835 
      6 C6         28.9163   -5.2896   -2.7513 C.3       12 UNK        -0.0855 
      7 S7         29.1764   -3.5049   -3.0262 S.3       12 UNK        -0.2931 
      8 C8         29.7285   -2.9523   -1.3899 C.3       12 UNK         0.0378 
      9 C9         29.9264   -1.4476   -1.4143 C.ar      12 UNK        -0.0802 
     10 C10        31.0750   -0.9075   -1.9979 C.ar      12 UNK        -0.0944 
     11 C11        31.2312    0.4761   -2.1098 C.ar      12 UNK        -0.0787 
     12 C12        30.2408    1.3224   -1.6003 C.ar      12 UNK        -0.0862 
     13 C13        29.0916    0.7922   -1.0013 C.ar      12 UNK        -0.0733 
     14 C14        28.9410   -0.5945   -0.9099 C.ar      12 UNK        -0.0832 
     15 C15        28.0047    1.7143   -0.4622 C.3       12 UNK         0.0240 
     16 S16        26.4896    1.6762   -1.4795 S.3       12 UNK        -0.2522 
     17 C17        27.1165    2.2202   -3.1035 C.3       12 UNK        -0.0967 
     18 CA         27.0354    1.0751   -4.1593 C.3       5 UNK         0.0660 
     19 N          25.6604    0.6964   -4.5053 N.am      5 UNK        -0.4015 
     20 C          24.7489    1.4843   -5.1004 C.2       4 UNK         0.4946 
     21 O          24.9659    2.6554   -5.4181 O.2       4 UNK        -0.5353 
     22 CA         23.3604    0.8903   -5.4172 C.3       4 UNK         0.0277 
     23 CB         23.0892    0.9126   -6.9315 C.3       4 UNK        -0.1981 
     24 N          23.1697   -0.4738   -4.9198 N.am      4 UNK        -0.4209 
     25 C          22.9286   -0.8025   -3.6429 C.2       3 UNK         0.4942 
     26 O          22.7499    0.0234   -2.7475 O.2       3 UNK        -0.5208 
     27 CA         22.8974   -2.3045   -3.2971 C.3       3 UNK         0.0250 
     28 CB         21.4467   -2.7855   -3.1279 C.3       3 UNK        -0.1990 
     29 N          23.5814   -3.1727   -4.2661 N.am      3 UNK        -0.4232 
     30 C          24.8921   -3.1367   -4.5447 C.2       2 UNK         0.4993 
     31 O          25.6721   -2.3123   -4.0620 O.2       2 UNK        -0.5286 
     32 CA         25.3948   -4.1378   -5.5969 C.3       2 UNK         0.0209 
     33 CB         25.5261   -3.4522   -6.9645 C.3       2 UNK        -0.1931 
     34 N          26.6967   -4.6857   -5.2287 N.am      2 UNK        -0.4546 
     35 C          26.9040   -5.6204   -4.2920 C.2       1 UNK         0.5154 
     36 O          25.9968   -6.1744   -3.6680 O.2       1 UNK        -0.5181 
     37 C          27.8648    1.3124   -5.4409 C.2       5 UNK         0.5014 
     38 O          27.6413    0.6209   -6.4395 O.2       5 UNK        -0.5248 
     39 N          28.8202    2.2536   -5.3997 N.am      6 UNK        -0.4434 
     40 CA         29.8349    2.5209   -6.4258 C.3       6 UNK         0.0363 
     41 CB         30.6963    3.7139   -5.9831 C.3       6 UNK        -0.1936 
     42 C          29.3055    2.7488   -7.8498 C.2       6 UNK         0.5081 
     43 O          30.0176    2.4307   -8.8015 O.2       6 UNK        -0.5248 
     44 N          28.0646    3.2397   -7.9704 N.am      7 UNK        -0.4718 
     45 CA         27.3427    3.4195   -9.2327 C.3       7 UNK         0.0273 
     46 CB         25.9997    4.1100   -8.9442 C.3       7 UNK        -0.1935 
     47 C          27.1135    2.1146  -10.0204 C.2       7 UNK         0.5018 
     48 O          26.9845    2.1772  -11.2438 O.2       7 UNK        -0.5186 
     49 N          27.0723    0.9726   -9.3199 N.am      8 UNK        -0.4240 
     50 CA         26.9387   -0.3614   -9.9082 C.3       8 UNK         0.0235 
     51 CB         25.5986   -0.9718   -9.4740 C.3       8 UNK        -0.2000 
     52 C          28.1096   -1.2805   -9.5269 C.2       8 UNK         0.4941 
     53 O          28.5069   -2.1067  -10.3487 O.2       8 UNK        -0.5273 
     54 N          28.6508   -1.1322   -8.3082 N.am      9 UNK        -0.4262 
     55 CA         29.7648   -1.9318   -7.7905 C.3       9 UNK         0.0264 
     56 CB         29.8132   -1.8055   -6.2589 C.3       9 UNK        -0.1955 
     57 C          31.1312   -1.5738   -8.4039 C.2       9 UNK         0.5031 
     58 O          32.0326   -2.4110   -8.3461 O.2       9 UNK        -0.5390 
     59 N          31.2617   -0.3627   -8.9732 N.am      10 UNK        -0.4204 
     60 CA         32.4563    0.1871   -9.6287 C.3       10 UNK         0.0237 
     61 CB         32.7639   -0.5779  -10.9342 C.3       10 UNK        -0.1985 
     62 C          33.6653    0.2732   -8.6767 C.2       10 UNK         0.4970 
     63 O          34.7262   -0.2842   -8.9655 O.2       10 UNK        -0.4914 
     64 N          33.4689    0.9655   -7.5471 N.am      11 UNK        -0.4285 
     65 CA         34.4703    1.1436   -6.4796 C.3       11 UNK         0.1007 
     66 C          35.7075    2.0056   -6.8701 C.2       11 UNK         0.5703 
     67 N          35.6681    2.7798   -7.9485 N.am      11 UNK        -0.7361 
     68 O          36.7235    1.9674   -6.1800 O.2       11 UNK        -0.4986 
     69 C69        33.8325    1.6823   -5.1711 C.3       12 UNK        -0.0947 
     70 S70        32.4405    0.6657   -4.5803 S.3       12 UNK        -0.2240 
     71 C71        32.4604    1.0462   -2.8016 C.3       12 UNK         0.0194 
     72 H72        30.8054   -5.2206   -7.1103 H         1 UNK         0.0906 
     73 H73        30.8509   -6.8923   -7.6731 H         1 UNK         0.0906 
     74 H74        29.6303   -5.7817   -8.3009 H         1 UNK         0.0906 
     75 H75        29.9028   -5.0250   -5.0651 H         1 UNK         0.3140 
     76 H76        28.3683   -7.0831   -3.8015 H         1 UNK         0.1085 
     77 H77        29.8683   -5.7337   -2.4559 H         1 UNK         0.0836 
     78 H78        28.2439   -5.4309   -1.9024 H         1 UNK         0.0836 
     79 H79        30.6620   -3.4517   -1.1255 H         1 UNK         0.0731 
     80 H80        28.9916   -3.2351   -0.6365 H         1 UNK         0.0731 
     81 H81        31.8295   -1.5662   -2.4063 H         1 UNK         0.1312 
     82 H82        30.3594    2.3943   -1.6810 H         1 UNK         0.1406 
     83 H83        28.0427   -1.0070   -0.4703 H         1 UNK         0.1631 
     84 H84        28.3649    2.7422   -0.3964 H         1 UNK         0.0717 
     85 H85        27.7523    1.4154    0.5561 H         1 UNK         0.0717 
     86 H86        26.5486    3.0957   -3.4208 H         1 UNK         0.0934 
     87 H87        28.1360    2.5735   -2.9589 H         1 UNK         0.0934 
     88 H88        27.4804    0.1839   -3.7124 H         1 UNK         0.0739 
     89 H89        25.4307   -0.2750   -4.3240 H         1 UNK         0.3093 
     90 H90        22.6242    1.5369   -4.9349 H         1 UNK         0.0818 
     91 H91        23.1741    1.9242   -7.3310 H         1 UNK         0.0819 
     92 H92        23.7964    0.2896   -7.4763 H         1 UNK         0.0819 
     93 H93        22.0833    0.5608   -7.1609 H         1 UNK         0.0819 
     94 H94        23.2908   -1.2216   -5.5863 H         1 UNK         0.3041 
     95 H95        23.4091   -2.4194   -2.3390 H         1 UNK         0.0784 
     96 H96        20.9180   -2.1811   -2.3892 H         1 UNK         0.0793 
     97 H97        20.8876   -2.7198   -4.0622 H         1 UNK         0.0793 
     98 H98        21.4076   -3.8191   -2.7832 H         1 UNK         0.0793 
     99 H99        23.0065   -3.8664   -4.7236 H         1 UNK         0.3024 
    100 H100       24.6830   -4.9623   -5.6810 H         1 UNK         0.1171 
    101 H101       24.5720   -3.0352   -7.2889 H         1 UNK         0.0786 
    102 H102       26.2518   -2.6383   -6.9303 H         1 UNK         0.0786 
    103 H103       25.8494   -4.1550   -7.7328 H         1 UNK         0.0786 
    104 H104       27.5081   -4.2530   -5.6431 H         1 UNK         0.2977 
    105 H105       28.9170    2.7863   -4.5488 H         1 UNK         0.3127 
    106 H106       30.4695    1.6360   -6.4726 H         1 UNK         0.0770 
    107 H107       30.1079    4.6293   -5.9094 H         1 UNK         0.0814 
    108 H108       31.5017    3.9016   -6.6947 H         1 UNK         0.0814 
    109 H109       31.1588    3.5348   -5.0125 H         1 UNK         0.0814 
    110 H110       27.5523    3.4429   -7.1235 H         1 UNK         0.2983 
    111 H111       27.9425    4.0772   -9.8655 H         1 UNK         0.0947 
    112 H112       25.4391    4.2766   -9.8652 H         1 UNK         0.0806 
    113 H113       26.1455    5.0834   -8.4755 H         1 UNK         0.0806 
    114 H114       25.3719    3.5097   -8.2837 H         1 UNK         0.0806 
    115 H115       27.1934    1.0214   -8.3125 H         1 UNK         0.3000 
    116 H116       26.9392   -0.2983  -10.9985 H         1 UNK         0.0850 
    117 H117       25.4967   -1.9985   -9.8285 H         1 UNK         0.0810 
    118 H118       24.7595   -0.4038   -9.8761 H         1 UNK         0.0810 
    119 H119       25.5045   -0.9823   -8.3897 H         1 UNK         0.0810 
    120 H120       28.2449   -0.4615   -7.6557 H         1 UNK         0.3040 
    121 H121       29.5654   -2.9776   -8.0337 H         1 UNK         0.0766 
    122 H122       30.0490   -0.7892   -5.9441 H         1 UNK         0.0812 
    123 H123       30.5783   -2.4573   -5.8353 H         1 UNK         0.0812 
    124 H124       28.8617   -2.0819   -5.8040 H         1 UNK         0.0812 
    125 H125       30.4656    0.2633   -8.9487 H         1 UNK         0.3205 
    126 H126       32.2117    1.2135   -9.9062 H         1 UNK         0.0754 
    127 H127       33.5893   -0.1120  -11.4741 H         1 UNK         0.0769 
    128 H128       31.9021   -0.5830  -11.6016 H         1 UNK         0.0769 
    129 H129       33.0448   -1.6141  -10.7431 H         1 UNK         0.0769 
    130 H130       32.5686    1.3872   -7.3834 H         1 UNK         0.2981 
    131 H131       34.8640    0.1495   -6.2587 H         1 UNK         0.0541 
    132 H132       36.4775    3.3292   -8.1905 H         1 UNK         0.3459 
    133 H133       34.8416    2.8186   -8.5222 H         1 UNK         0.3459 
    134 H134       33.4772    2.7044   -5.3103 H         1 UNK         0.0612 
    135 H135       34.5825    1.7240   -4.3787 H         1 UNK         0.0612 
    136 H136       33.3621    0.6291   -2.3508 H         1 UNK         0.0624 
    137 H137       32.5115    2.1278   -2.6668 H         1 UNK         0.0624 
@<TRIPOS>BOND
     1    1    2 1    
     2    1   72 1    
     3    1   73 1    
     4    1   74 1    
     5    2    3 2    
     6    2    4 am   BACKBONE|DICT|INTERRES
     7    4    5 1    
     8    4   75 1    
     9    5    6 1    
    10    5   35 1    
    11    5   76 1    
    12    6    7 1    
    13    6   77 1    
    14    6   78 1    
    15    7    8 1    
    16    8    9 1    
    17    8   79 1    
    18    8   80 1    
    19    9   10 ar   
    20    9   14 ar   
    21   10   11 ar   
    22   10   81 1    
    23   11   12 ar   
    24   11   71 1    
    25   12   13 ar   
    26   12   82 1    
    27   13   14 ar   
    28   13   15 1    
    29   14   83 1    
    30   15   16 1    
    31   15   84 1    
    32   15   85 1    
    33   16   17 1    
    34   17   18 1    
    35   17   86 1    
    36   17   87 1    
    37   18   19 1    
    38   18   37 1    
    39   18   88 1    
    40   19   20 am   BACKBONE|DICT|INTERRES
    41   19   89 1    
    42   20   21 2    
    43   20   22 1    
    44   22   23 1    
    45   22   24 1    
    46   22   90 1    
    47   23   91 1    
    48   23   92 1    
    49   23   93 1    
    50   24   25 am   BACKBONE|DICT|INTERRES
    51   24   94 1    
    52   25   26 2    
    53   25   27 1    
    54   27   28 1    
    55   27   29 1    
    56   27   95 1    
    57   28   96 1    
    58   28   97 1    
    59   28   98 1    
    60   29   30 am   BACKBONE|DICT|INTERRES
    61   29   99 1    
    62   30   31 2    
    63   30   32 1    
    64   32   33 1    
    65   32   34 1    
    66   32  100 1    
    67   33  101 1    
    68   33  102 1    
    69   33  103 1    
    70   34   35 am   BACKBONE|DICT|INTERRES
    71   34  104 1    
    72   35   36 2    
    73   37   38 2    
    74   37   39 am   BACKBONE|DICT|INTERRES
    75   39   40 1    
    76   39  105 1    
    77   40   41 1    
    78   40   42 1    
    79   40  106 1    
    80   41  107 1    
    81   41  108 1    
    82   41  109 1    
    83   42   43 2    
    84   42   44 am   BACKBONE|DICT|INTERRES
    85   44   45 1    
    86   44  110 1    
    87   45   46 1    
    88   45   47 1    
    89   45  111 1    
    90   46  112 1    
    91   46  113 1    
    92   46  114 1    
    93   47   48 2    
    94   47   49 am   BACKBONE|DICT|INTERRES
    95   49   50 1    
    96   49  115 1    
    97   50   51 1    
    98   50   52 1    
    99   50  116 1    
   100   51  117 1    
   101   51  118 1    
   102   51  119 1    
   103   52   53 2    
   104   52   54 am   BACKBONE|DICT|INTERRES
   105   54   55 1    
   106   54  120 1    
   107   55   56 1    
   108   55   57 1    
   109   55  121 1    
   110   56  122 1    
   111   56  123 1    
   112   56  124 1    
   113   57   58 2    
   114   57   59 am   BACKBONE|DICT|INTERRES
   115   59   60 1    
   116   59  125 1    
   117   60   61 1    
   118   60   62 1    
   119   60  126 1    
   120   61  127 1    
   121   61  128 1    
   122   61  129 1    
   123   62   63 2    
   124   62   64 am   BACKBONE|DICT|INTERRES
   125   64   65 1    
   126   64  130 1    
   127   65   66 1    
   128   65   69 1    
   129   65  131 1    
   130   66   67 am   BACKBONE|DICT|INTERRES
   131   66   68 2    
   132   67  132 1    
   133   67  133 1    
   134   69   70 1    
   135   69  134 1    
   136   69  135 1    
   137   70   71 1    
   138   71  136 1    
   139   71  137 1    
@<TRIPOS>SUBSTRUCTURE
     1 UNK         1 GROUP             0       ****    0 ROOT    
