@<TRIPOS>MOLECULE
3R137
137   139    1
SMALL
USER_CHARGES


@<TRIPOS>ATOM
      1 CA         27.7573   -9.1302   -3.0764 C.3       0 UNK        -0.2020 
      2 C          27.6373   -7.6407   -3.3628 C.2       0 UNK         0.4855 
      3 O          27.3389   -7.2625   -4.4960 O.2       0 UNK        -0.5197 
      4 N          27.8692   -6.8020   -2.3432 N.am      1 UNK        -0.4892 
      5 CA         27.7929   -5.3344   -2.3773 C.3       1 UNK         0.0835 
      6 C6         28.8708   -4.6683   -3.2845 C.3       12 UNK        -0.0855 
      7 S7         30.5798   -5.1495   -2.8510 S.3       12 UNK        -0.2931 
      8 C8         30.9303   -4.1311   -1.3801 C.3       12 UNK         0.0378 
      9 C9         30.9848   -2.6442   -1.6992 C.ar      12 UNK        -0.0802 
     10 C10        32.1308   -2.0893   -2.2771 C.ar      12 UNK        -0.0944 
     11 C11        32.1877   -0.7222   -2.5643 C.ar      12 UNK        -0.0787 
     12 C12        31.0931    0.0918   -2.2603 C.ar      12 UNK        -0.0862 
     13 C13        29.9345   -0.4549   -1.6989 C.ar      12 UNK        -0.0733 
     14 C14        29.8918   -1.8216   -1.4093 C.ar      12 UNK        -0.0832 
     15 C15        28.7147    0.4193   -1.4304 C.3       12 UNK         0.0240 
     16 S16        28.1434    1.3087   -2.9168 S.3       12 UNK        -0.2522 
     17 C17        28.0770   -0.0416   -4.1483 C.3       12 UNK        -0.0967 
     18 CA         27.3392    0.3343   -5.4533 C.3       5 UNK         0.0660 
     19 N          25.9481    0.7415   -5.2185 N.am      5 UNK        -0.4015 
     20 C          25.0564    1.0607   -6.1682 C.2       4 UNK         0.4946 
     21 O          25.3300    1.0920   -7.3705 O.2       4 UNK        -0.5353 
     22 CA         23.6289    1.3809   -5.6956 C.3       4 UNK         0.0277 
     23 CB         22.6375    1.5005   -6.8691 C.3       4 UNK        -0.1981 
     24 N          23.1634    0.3378   -4.7809 N.am      4 UNK        -0.4209 
     25 C          23.0285    0.4640   -3.4537 C.2       3 UNK         0.4942 
     26 O          23.2326    1.5103   -2.8382 O.2       3 UNK        -0.5208 
     27 CA         22.6264   -0.8048   -2.6778 C.3       3 UNK         0.0250 
     28 CB         21.0968   -0.9014   -2.5572 C.3       3 UNK        -0.1990 
     29 N          23.1493   -2.0342   -3.2865 N.am      3 UNK        -0.4232 
     30 C          24.4487   -2.3608   -3.3169 C.2       2 UNK         0.4993 
     31 O          25.3334   -1.6928   -2.7777 O.2       2 UNK        -0.5286 
     32 CA         24.8215   -3.5964   -4.1521 C.3       2 UNK         0.0209 
     33 CB         24.8786   -3.2227   -5.6428 C.3       2 UNK        -0.1931 
     34 N          26.1221   -4.1445   -3.7630 N.am      2 UNK        -0.4546 
     35 C          26.3434   -4.8770   -2.6636 C.2       1 UNK         0.5154 
     36 O          25.4498   -5.2082   -1.8802 O.2       1 UNK        -0.5181 
     37 C          28.1584    1.3322   -6.2969 C.2       5 UNK         0.5014 
     38 O          28.9707    0.8955   -7.1111 O.2       5 UNK        -0.5248 
     39 N          27.8938    2.6372   -6.1441 N.am      6 UNK        -0.4434 
     40 CA         28.5103    3.7158   -6.9225 C.3       6 UNK         0.0363 
     41 CB         28.0532    5.0694   -6.3561 C.3       6 UNK        -0.1936 
     42 C          28.2281    3.6436   -8.4365 C.2       6 UNK         0.5081 
     43 O          29.0237    4.1695   -9.2145 O.2       6 UNK        -0.5248 
     44 N          27.1224    2.9959   -8.8270 N.am      7 UNK        -0.4718 
     45 CA         26.7720    2.7207  -10.2191 C.3       7 UNK         0.0273 
     46 CB         25.2759    3.0078  -10.4318 C.3       7 UNK        -0.1935 
     47 C          27.0994    1.2674  -10.5919 C.2       7 UNK         0.5018 
     48 O          27.6502    1.0317  -11.6675 O.2       7 UNK        -0.5186 
     49 N          26.7336    0.3212   -9.7151 N.am      8 UNK        -0.4240 
     50 CA         26.8222   -1.1186   -9.9659 C.3       8 UNK         0.0235 
     51 CB         25.9350   -1.8616   -8.9551 C.3       8 UNK        -0.2000 
     52 C          28.2537   -1.6792   -9.9371 C.2       8 UNK         0.4941 
     53 O          28.5704   -2.5401  -10.7594 O.2       8 UNK        -0.5273 
     54 N          29.0766   -1.2105   -8.9905 N.am      9 UNK        -0.4262 
     55 CA         30.4526   -1.6687   -8.7783 C.3       9 UNK         0.0264 
     56 CB         30.6224   -2.1195   -7.3160 C.3       9 UNK        -0.1955 
     57 C          31.4735   -0.5752   -9.1193 C.2       9 UNK         0.5031 
     58 O          32.5438   -0.8979   -9.6370 O.2       9 UNK        -0.5390 
     59 N          31.1460    0.6869   -8.8031 N.am      10 UNK        -0.4204 
     60 CA         31.9265    1.9228   -8.9693 C.3       10 UNK         0.0237 
     61 CB         32.2754    2.1859  -10.4468 C.3       10 UNK        -0.1985 
     62 C          33.1716    2.0172   -8.0678 C.2       10 UNK         0.4970 
     63 O          33.4215    3.0857   -7.5094 O.2       10 UNK        -0.4914 
     64 N          33.9060    0.9077   -7.9252 N.am      11 UNK        -0.4285 
     65 CA         35.0578    0.7116   -7.0273 C.3       11 UNK         0.1007 
     66 C          36.3337    1.5211   -7.4122 C.2       11 UNK         0.5703 
     67 N          36.4368    2.0562   -8.6233 N.am      11 UNK        -0.7361 
     68 O          37.2631    1.6396   -6.6167 O.2       11 UNK        -0.4986 
     69 C69        34.6856    0.8536   -5.5213 C.3       12 UNK        -0.0947 
     70 S70        33.2752   -0.1956   -5.0333 S.3       12 UNK        -0.2240 
     71 C71        33.4192   -0.1239   -3.2237 C.3       12 UNK         0.0194 
     72 H72        28.0322   -9.3271   -2.0403 H         1 UNK         0.0906 
     73 H73        26.8088   -9.6282   -3.2759 H         1 UNK         0.0906 
     74 H74        28.5173   -9.5748   -3.7184 H         1 UNK         0.0906 
     75 H75        28.0858   -7.1914   -1.4361 H         1 UNK         0.3140 
     76 H76        27.9865   -5.0048   -1.3558 H         1 UNK         0.1085 
     77 H77        28.7944   -3.5809   -3.2503 H         1 UNK         0.0836 
     78 H78        28.7176   -4.9459   -4.3287 H         1 UNK         0.0836 
     79 H79        31.8887   -4.4432   -0.9623 H         1 UNK         0.0731 
     80 H80        30.1884   -4.3345   -0.6068 H         1 UNK         0.0731 
     81 H81        32.9733   -2.7244   -2.5152 H         1 UNK         0.1312 
     82 H82        31.1281    1.1476   -2.4930 H         1 UNK         0.1406 
     83 H83        29.0006   -2.2493   -0.9704 H         1 UNK         0.1631 
     84 H84        28.9574    1.1447   -0.6530 H         1 UNK         0.0717 
     85 H85        27.8850   -0.1783   -1.0491 H         1 UNK         0.0717 
     86 H86        29.0953   -0.3666   -4.3733 H         1 UNK         0.0934 
     87 H87        27.5956   -0.9052   -3.6894 H         1 UNK         0.0934 
     88 H88        27.2828   -0.5760   -6.0521 H         1 UNK         0.0739 
     89 H89        25.6482    0.7390   -4.2531 H         1 UNK         0.3093 
     90 H90        23.6686    2.3473   -5.1890 H         1 UNK         0.0818 
     91 H91        22.9323    2.2999   -7.5504 H         1 UNK         0.0819 
     92 H92        21.6325    1.7322   -6.5163 H         1 UNK         0.0819 
     93 H93        22.5854    0.5793   -7.4509 H         1 UNK         0.0819 
     94 H94        22.9918   -0.5688   -5.1905 H         1 UNK         0.3041 
     95 H95        23.0435   -0.7211   -1.6717 H         1 UNK         0.0784 
     96 H96        20.6864   -0.0077   -2.0847 H         1 UNK         0.0793 
     97 H97        20.6178   -1.0033   -3.5319 H         1 UNK         0.0793 
     98 H98        20.7999   -1.7536   -1.9454 H         1 UNK         0.0793 
     99 H99        22.4786   -2.6359   -3.7438 H         1 UNK         0.3024 
    100 H100       24.0596   -4.3655   -4.0034 H         1 UNK         0.1171 
    101 H101       25.1619   -4.0773   -6.2579 H         1 UNK         0.0786 
    102 H102       23.9097   -2.8759   -6.0040 H         1 UNK         0.0786 
    103 H103       25.5987   -2.4249   -5.8232 H         1 UNK         0.0786 
    104 H104       26.9040   -3.9124   -4.3557 H         1 UNK         0.2977 
    105 H105       27.2178    2.9066   -5.4442 H         1 UNK         0.3127 
    106 H106       29.5917    3.6370   -6.7917 H         1 UNK         0.0770 
    107 H107       26.9730    5.1969   -6.4373 H         1 UNK         0.0814 
    108 H108       28.5199    5.8951   -6.8953 H         1 UNK         0.0814 
    109 H109       28.3280    5.1749   -5.3064 H         1 UNK         0.0814 
    110 H110       26.5352    2.5631   -8.1224 H         1 UNK         0.2983 
    111 H111       27.3372    3.3713  -10.8904 H         1 UNK         0.0947 
    112 H112       24.9826    2.8057  -11.4629 H         1 UNK         0.0806 
    113 H113       25.0423    4.0528  -10.2278 H         1 UNK         0.0806 
    114 H114       24.6464    2.3934   -9.7865 H         1 UNK         0.0806 
    115 H115       26.2535    0.6060   -8.8632 H         1 UNK         0.3000 
    116 H116       26.4196   -1.3066  -10.9638 H         1 UNK         0.0850 
    117 H117       25.9491   -2.9375   -9.1352 H         1 UNK         0.0810 
    118 H118       24.8971   -1.5342   -9.0199 H         1 UNK         0.0810 
    119 H119       26.2738   -1.6959   -7.9339 H         1 UNK         0.0810 
    120 H120       28.7527   -0.4693   -8.3758 H         1 UNK         0.3040 
    121 H121       30.6718   -2.5262   -9.4180 H         1 UNK         0.0766 
    122 H122       29.9354   -2.9286   -7.0684 H         1 UNK         0.0812 
    123 H123       30.4476   -1.3051   -6.6120 H         1 UNK         0.0812 
    124 H124       31.6338   -2.4871   -7.1368 H         1 UNK         0.0812 
    125 H125       30.2849    0.8098   -8.2697 H         1 UNK         0.3205 
    126 H126       31.2604    2.7241   -8.6482 H         1 UNK         0.0754 
    127 H127       31.3782    2.1967  -11.0660 H         1 UNK         0.0769 
    128 H128       32.9535    1.4337  -10.8503 H         1 UNK         0.0769 
    129 H129       32.7606    3.1558  -10.5634 H         1 UNK         0.0769 
    130 H130       33.6224    0.0978   -8.4702 H         1 UNK         0.2981 
    131 H131       35.3500   -0.3278   -7.1793 H         1 UNK         0.0541 
    132 H132       35.6877    1.9571   -9.2891 H         1 UNK         0.3459 
    133 H133       37.2696    2.5679   -8.8686 H         1 UNK         0.3459 
    134 H134       35.5369    0.5798   -4.8955 H         1 UNK         0.0612 
    135 H135       34.4468    1.8901   -5.2782 H         1 UNK         0.0612 
    136 H136       34.3172   -0.6575   -2.9087 H         1 UNK         0.0624 
    137 H137       33.5452    0.9135   -2.9093 H         1 UNK         0.0624 
@<TRIPOS>BOND
     1    1    2 1    
     2    1   72 1    
     3    1   73 1    
     4    1   74 1    
     5    2    3 2    
     6    2    4 am   BACKBONE|DICT|INTERRES
     7    4    5 1    
     8    4   75 1    
     9    5    6 1    
    10    5   35 1    
    11    5   76 1    
    12    6    7 1    
    13    6   77 1    
    14    6   78 1    
    15    7    8 1    
    16    8    9 1    
    17    8   79 1    
    18    8   80 1    
    19    9   10 ar   
    20    9   14 ar   
    21   10   11 ar   
    22   10   81 1    
    23   11   12 ar   
    24   11   71 1    
    25   12   13 ar   
    26   12   82 1    
    27   13   14 ar   
    28   13   15 1    
    29   14   83 1    
    30   15   16 1    
    31   15   84 1    
    32   15   85 1    
    33   16   17 1    
    34   17   18 1    
    35   17   86 1    
    36   17   87 1    
    37   18   19 1    
    38   18   37 1    
    39   18   88 1    
    40   19   20 am   BACKBONE|DICT|INTERRES
    41   19   89 1    
    42   20   21 2    
    43   20   22 1    
    44   22   23 1    
    45   22   24 1    
    46   22   90 1    
    47   23   91 1    
    48   23   92 1    
    49   23   93 1    
    50   24   25 am   BACKBONE|DICT|INTERRES
    51   24   94 1    
    52   25   26 2    
    53   25   27 1    
    54   27   28 1    
    55   27   29 1    
    56   27   95 1    
    57   28   96 1    
    58   28   97 1    
    59   28   98 1    
    60   29   30 am   BACKBONE|DICT|INTERRES
    61   29   99 1    
    62   30   31 2    
    63   30   32 1    
    64   32   33 1    
    65   32   34 1    
    66   32  100 1    
    67   33  101 1    
    68   33  102 1    
    69   33  103 1    
    70   34   35 am   BACKBONE|DICT|INTERRES
    71   34  104 1    
    72   35   36 2    
    73   37   38 2    
    74   37   39 am   BACKBONE|DICT|INTERRES
    75   39   40 1    
    76   39  105 1    
    77   40   41 1    
    78   40   42 1    
    79   40  106 1    
    80   41  107 1    
    81   41  108 1    
    82   41  109 1    
    83   42   43 2    
    84   42   44 am   BACKBONE|DICT|INTERRES
    85   44   45 1    
    86   44  110 1    
    87   45   46 1    
    88   45   47 1    
    89   45  111 1    
    90   46  112 1    
    91   46  113 1    
    92   46  114 1    
    93   47   48 2    
    94   47   49 am   BACKBONE|DICT|INTERRES
    95   49   50 1    
    96   49  115 1    
    97   50   51 1    
    98   50   52 1    
    99   50  116 1    
   100   51  117 1    
   101   51  118 1    
   102   51  119 1    
   103   52   53 2    
   104   52   54 am   BACKBONE|DICT|INTERRES
   105   54   55 1    
   106   54  120 1    
   107   55   56 1    
   108   55   57 1    
   109   55  121 1    
   110   56  122 1    
   111   56  123 1    
   112   56  124 1    
   113   57   58 2    
   114   57   59 am   BACKBONE|DICT|INTERRES
   115   59   60 1    
   116   59  125 1    
   117   60   61 1    
   118   60   62 1    
   119   60  126 1    
   120   61  127 1    
   121   61  128 1    
   122   61  129 1    
   123   62   63 2    
   124   62   64 am   BACKBONE|DICT|INTERRES
   125   64   65 1    
   126   64  130 1    
   127   65   66 1    
   128   65   69 1    
   129   65  131 1    
   130   66   67 am   BACKBONE|DICT|INTERRES
   131   66   68 2    
   132   67  132 1    
   133   67  133 1    
   134   69   70 1    
   135   69  134 1    
   136   69  135 1    
   137   70   71 1    
   138   71  136 1    
   139   71  137 1    
@<TRIPOS>SUBSTRUCTURE
     1 UNK         1 GROUP             0       ****    0 ROOT    
