@<TRIPOS>MOLECULE
3R137
137   139    1
SMALL
USER_CHARGES


@<TRIPOS>ATOM
      1 CA         30.6169   -1.1776    2.9253 C.3       0 UNK        -0.2020 
      2 C          30.0401   -0.9089    1.5432 C.2       0 UNK         0.4855 
      3 O          29.5691    0.1986    1.2813 O.2       0 UNK        -0.5197 
      4 N          30.0802   -1.9104    0.6567 N.am      1 UNK        -0.4892 
      5 CA         29.5082   -1.8600   -0.6923 C.3       1 UNK         0.0835 
      6 C6         30.1506   -2.9263   -1.6172 C.3       12 UNK        -0.0855 
      7 S7         29.9532   -4.6528   -1.0396 S.3       12 UNK        -0.2931 
      8 C8         31.2706   -5.5136   -1.9636 C.3       12 UNK         0.0378 
      9 C9         31.2164   -5.2168   -3.4563 C.ar      12 UNK        -0.0802 
     10 C10        32.2779   -4.5528   -4.0787 C.ar      12 UNK        -0.0944 
     11 C11        32.2083   -4.2172   -5.4339 C.ar      12 UNK        -0.0787 
     12 C12        31.0751   -4.5681   -6.1717 C.ar      12 UNK        -0.0862 
     13 C13        29.9953   -5.2031   -5.5528 C.ar      12 UNK        -0.0733 
     14 C14        30.0833   -5.5541   -4.2030 C.ar      12 UNK        -0.0832 
     15 C15        28.7016   -5.4258   -6.3216 C.3       12 UNK         0.0240 
     16 S16        27.3559   -4.3620   -5.6951 S.3       12 UNK        -0.2522 
     17 C17        28.0595   -2.6785   -5.8337 C.3       12 UNK        -0.0967 
     18 CA         27.3453   -1.8206   -6.8996 C.3       5 UNK         0.0660 
     19 N          25.9145   -1.6756   -6.6253 N.am      5 UNK        -0.4015 
     20 C          25.0081   -1.2382   -7.5080 C.2       4 UNK         0.4946 
     21 O          25.2763   -0.9191   -8.6651 O.2       4 UNK        -0.5353 
     22 CA         23.5646   -1.0984   -6.9987 C.3       4 UNK         0.0277 
     23 CB         22.8468   -2.4574   -7.0202 C.3       4 UNK        -0.1981 
     24 N          23.5010   -0.5248   -5.6517 N.am      4 UNK        -0.4209 
     25 C          23.8647    0.7307   -5.3532 C.2       3 UNK         0.4942 
     26 O          24.2437    1.5504   -6.1894 O.2       3 UNK        -0.5208 
     27 CA         23.8455    1.1248   -3.8664 C.3       3 UNK         0.0250 
     28 CB         22.4376    1.5756   -3.4455 C.3       3 UNK        -0.1990 
     29 N          24.3186    0.0693   -2.9610 N.am      3 UNK        -0.4232 
     30 C          25.5421   -0.4757   -2.9995 C.2       2 UNK         0.4993 
     31 O          26.3897   -0.2054   -3.8540 O.2       2 UNK        -0.5286 
     32 CA         25.8721   -1.5226   -1.9336 C.3       2 UNK         0.0209 
     33 CB         25.3781   -2.9161   -2.3640 C.3       2 UNK        -0.1931 
     34 N          27.3215   -1.5385   -1.7540 N.am      2 UNK        -0.4546 
     35 C          27.9651   -1.9625   -0.6618 C.2       1 UNK         0.5154 
     36 O          27.3880   -2.4281    0.3262 O.2       1 UNK        -0.5181 
     37 C          28.0314   -0.4492   -7.0568 C.2       5 UNK         0.5014 
     38 O          28.9001   -0.3013   -7.9172 O.2       5 UNK        -0.5248 
     39 N          27.6130    0.5405   -6.2549 N.am      6 UNK        -0.4434 
     40 CA         28.0193    1.9398   -6.3772 C.3       6 UNK         0.0363 
     41 CB         27.4835    2.7525   -5.1891 C.3       6 UNK        -0.1936 
     42 C          27.5845    2.5551   -7.7161 C.2       6 UNK         0.5081 
     43 O          28.4069    3.1802   -8.3830 O.2       6 UNK        -0.5248 
     44 N          26.3262    2.3274   -8.1153 N.am      7 UNK        -0.4718 
     45 CA         25.7921    2.7528   -9.4116 C.3       7 UNK         0.0273 
     46 CB         24.2760    2.5033   -9.4531 C.3       7 UNK        -0.1935 
     47 C          26.4915    2.0764  -10.6050 C.2       7 UNK         0.5018 
     48 O          26.7634    2.7472  -11.6016 O.2       7 UNK        -0.5186 
     49 N          26.7662    0.7705  -10.4846 N.am      8 UNK        -0.4240 
     50 CA         27.4014   -0.0364  -11.5251 C.3       8 UNK         0.0235 
     51 CB         27.1426   -1.5277  -11.2532 C.3       8 UNK        -0.2000 
     52 C          28.9085    0.2215  -11.6814 C.2       8 UNK         0.4941 
     53 O          29.3689    0.3630  -12.8155 O.2       8 UNK        -0.5273 
     54 N          29.6549    0.2187  -10.5674 N.am      9 UNK        -0.4262 
     55 CA         31.1167    0.0938  -10.5717 C.3       9 UNK         0.0264 
     56 CB         31.4745   -1.3772  -10.2820 C.3       9 UNK        -0.1955 
     57 C          31.8426    1.0470   -9.6067 C.2       9 UNK         0.5031 
     58 O          33.0610    0.9219   -9.4734 O.2       9 UNK        -0.5390 
     59 N          31.1240    1.9793   -8.9601 N.am      10 UNK        -0.4204 
     60 CA         31.6443    2.9686   -7.9998 C.3       10 UNK         0.0237 
     61 CB         32.6182    3.9542   -8.6831 C.3       10 UNK        -0.1985 
     62 C          32.2228    2.3515   -6.7086 C.2       10 UNK         0.4970 
     63 O          33.0702    2.9714   -6.0641 O.2       10 UNK        -0.4914 
     64 N          31.7356    1.1621   -6.3329 N.am      11 UNK        -0.4285 
     65 CA         32.1368    0.4230   -5.1232 C.3       11 UNK         0.1007 
     66 C          31.5204    0.9559   -3.7931 C.2       11 UNK         0.5703 
     67 N          30.7592    2.0435   -3.7905 N.am      11 UNK        -0.7361 
     68 O          31.7396    0.3710   -2.7352 O.2       11 UNK        -0.4986 
     69 C69        31.8870   -1.0975   -5.2844 C.3       12 UNK        -0.0947 
     70 S70        32.7331   -1.8157   -6.7353 S.3       12 UNK        -0.2240 
     71 C71        33.3268   -3.4135   -6.0840 C.3       12 UNK         0.0194 
     72 H72        29.8466   -1.0464    3.6849 H         1 UNK         0.0906 
     73 H73        31.0108   -2.1901    3.0135 H         1 UNK         0.0906 
     74 H74        31.4266   -0.4796    3.1366 H         1 UNK         0.0906 
     75 H75        30.4354   -2.8148    0.9338 H         1 UNK         0.3140 
     76 H76        29.7499   -0.8798   -1.1113 H         1 UNK         0.1085 
     77 H77        31.2167   -2.7141   -1.7163 H         1 UNK         0.0836 
     78 H78        29.7456   -2.8497   -2.6284 H         1 UNK         0.0836 
     79 H79        32.2371   -5.2283   -1.5449 H         1 UNK         0.0731 
     80 H80        31.1724   -6.5886   -1.8067 H         1 UNK         0.0731 
     81 H81        33.1456   -4.2668   -3.4998 H         1 UNK         0.1312 
     82 H82        31.0091   -4.2811   -7.2125 H         1 UNK         0.1406 
     83 H83        29.2433   -6.0321   -3.7170 H         1 UNK         0.1631 
     84 H84        28.4018   -6.4709   -6.2330 H         1 UNK         0.0717 
     85 H85        28.8405   -5.2325   -7.3865 H         1 UNK         0.0717 
     86 H86        28.0016   -2.2068   -4.8513 H         1 UNK         0.0934 
     87 H87        29.1198   -2.7400   -6.0714 H         1 UNK         0.0934 
     88 H88        27.4442   -2.3348   -7.8579 H         1 UNK         0.0739 
     89 H89        25.6171   -1.8909   -5.6860 H         1 UNK         0.3093 
     90 H90        23.0389   -0.4234   -7.6778 H         1 UNK         0.0818 
     91 H91        21.7986   -2.3568   -6.7379 H         1 UNK         0.0819 
     92 H92        22.8703   -2.8930   -8.0202 H         1 UNK         0.0819 
     93 H93        23.3106   -3.1748   -6.3419 H         1 UNK         0.0819 
     94 H94        23.1907   -1.1281   -4.9041 H         1 UNK         0.3041 
     95 H95        24.5200    1.9756   -3.7504 H         1 UNK         0.0784 
     96 H96        22.0732    2.3730   -4.0951 H         1 UNK         0.0793 
     97 H97        21.7169    0.7585   -3.4971 H         1 UNK         0.0793 
     98 H98        22.4329    1.9645   -2.4270 H         1 UNK         0.0793 
     99 H99        23.6780   -0.2211   -2.2357 H         1 UNK         0.3024 
    100 H100       25.3950   -1.2308   -0.9949 H         1 UNK         0.1171 
    101 H101       24.2984   -2.9230   -2.5181 H         1 UNK         0.0786 
    102 H102       25.5992   -3.6673   -1.6056 H         1 UNK         0.0786 
    103 H103       25.8452   -3.2385   -3.2948 H         1 UNK         0.0786 
    104 H104       27.8300   -1.1158   -2.5210 H         1 UNK         0.2977 
    105 H105       26.9643    0.3173   -5.5014 H         1 UNK         0.3127 
    106 H106       29.1072    1.9690   -6.3382 H         1 UNK         0.0770 
    107 H107       26.3947    2.7896   -5.1810 H         1 UNK         0.0814 
    108 H108       27.8432    3.7814   -5.2278 H         1 UNK         0.0814 
    109 H109       27.8085    2.3285   -4.2388 H         1 UNK         0.0814 
    110 H110       25.6872    1.8460   -7.4877 H         1 UNK         0.2983 
    111 H111       25.9611    3.8282   -9.5013 H         1 UNK         0.0947 
    112 H112       23.8508    2.8354  -10.4011 H         1 UNK         0.0806 
    113 H113       23.7637    3.0467   -8.6589 H         1 UNK         0.0806 
    114 H114       24.0371    1.4455   -9.3398 H         1 UNK         0.0806 
    115 H115       26.4300    0.2765   -9.6617 H         1 UNK         0.3000 
    116 H116       26.9266    0.2118  -12.4771 H         1 UNK         0.0850 
    117 H117       27.5937   -2.1513  -12.0262 H         1 UNK         0.0810 
    118 H118       26.0750   -1.7482  -11.2414 H         1 UNK         0.0810 
    119 H119       27.5585   -1.8420  -10.2954 H         1 UNK         0.0810 
    120 H120       29.2049    0.0795   -9.6627 H         1 UNK         0.3040 
    121 H121       31.5104    0.3434  -11.5589 H         1 UNK         0.0766 
    122 H122       31.0613   -2.0417  -11.0407 H         1 UNK         0.0812 
    123 H123       31.0885   -1.6965   -9.3133 H         1 UNK         0.0812 
    124 H124       32.5539   -1.5338  -10.2721 H         1 UNK         0.0812 
    125 H125       30.1259    2.0324   -9.1310 H         1 UNK         0.3205 
    126 H126       30.7899    3.5585   -7.6715 H         1 UNK         0.0754 
    127 H127       32.8676    4.7825   -8.0187 H         1 UNK         0.0769 
    128 H128       32.1786    4.3857   -9.5824 H         1 UNK         0.0769 
    129 H129       33.5554    3.4733   -8.9642 H         1 UNK         0.0769 
    130 H130       31.0559    0.7050   -6.9245 H         1 UNK         0.2981 
    131 H131       33.2140    0.5552   -5.0071 H         1 UNK         0.0541 
    132 H132       30.6090    2.5661   -4.6356 H         1 UNK         0.3459 
    133 H133       30.3812    2.3720   -2.9166 H         1 UNK         0.3459 
    134 H134       30.8195   -1.2996   -5.3735 H         1 UNK         0.0612 
    135 H135       32.2254   -1.6264   -4.3919 H         1 UNK         0.0612 
    136 H136       33.7583   -3.9923   -6.9015 H         1 UNK         0.0624 
    137 H137       34.1347   -3.2243   -5.3755 H         1 UNK         0.0624 
@<TRIPOS>BOND
     1    1    2 1    
     2    1   72 1    
     3    1   73 1    
     4    1   74 1    
     5    2    3 2    
     6    2    4 am   BACKBONE|DICT|INTERRES
     7    4    5 1    
     8    4   75 1    
     9    5    6 1    
    10    5   35 1    
    11    5   76 1    
    12    6    7 1    
    13    6   77 1    
    14    6   78 1    
    15    7    8 1    
    16    8    9 1    
    17    8   79 1    
    18    8   80 1    
    19    9   10 ar   
    20    9   14 ar   
    21   10   11 ar   
    22   10   81 1    
    23   11   12 ar   
    24   11   71 1    
    25   12   13 ar   
    26   12   82 1    
    27   13   14 ar   
    28   13   15 1    
    29   14   83 1    
    30   15   16 1    
    31   15   84 1    
    32   15   85 1    
    33   16   17 1    
    34   17   18 1    
    35   17   86 1    
    36   17   87 1    
    37   18   19 1    
    38   18   37 1    
    39   18   88 1    
    40   19   20 am   BACKBONE|DICT|INTERRES
    41   19   89 1    
    42   20   21 2    
    43   20   22 1    
    44   22   23 1    
    45   22   24 1    
    46   22   90 1    
    47   23   91 1    
    48   23   92 1    
    49   23   93 1    
    50   24   25 am   BACKBONE|DICT|INTERRES
    51   24   94 1    
    52   25   26 2    
    53   25   27 1    
    54   27   28 1    
    55   27   29 1    
    56   27   95 1    
    57   28   96 1    
    58   28   97 1    
    59   28   98 1    
    60   29   30 am   BACKBONE|DICT|INTERRES
    61   29   99 1    
    62   30   31 2    
    63   30   32 1    
    64   32   33 1    
    65   32   34 1    
    66   32  100 1    
    67   33  101 1    
    68   33  102 1    
    69   33  103 1    
    70   34   35 am   BACKBONE|DICT|INTERRES
    71   34  104 1    
    72   35   36 2    
    73   37   38 2    
    74   37   39 am   BACKBONE|DICT|INTERRES
    75   39   40 1    
    76   39  105 1    
    77   40   41 1    
    78   40   42 1    
    79   40  106 1    
    80   41  107 1    
    81   41  108 1    
    82   41  109 1    
    83   42   43 2    
    84   42   44 am   BACKBONE|DICT|INTERRES
    85   44   45 1    
    86   44  110 1    
    87   45   46 1    
    88   45   47 1    
    89   45  111 1    
    90   46  112 1    
    91   46  113 1    
    92   46  114 1    
    93   47   48 2    
    94   47   49 am   BACKBONE|DICT|INTERRES
    95   49   50 1    
    96   49  115 1    
    97   50   51 1    
    98   50   52 1    
    99   50  116 1    
   100   51  117 1    
   101   51  118 1    
   102   51  119 1    
   103   52   53 2    
   104   52   54 am   BACKBONE|DICT|INTERRES
   105   54   55 1    
   106   54  120 1    
   107   55   56 1    
   108   55   57 1    
   109   55  121 1    
   110   56  122 1    
   111   56  123 1    
   112   56  124 1    
   113   57   58 2    
   114   57   59 am   BACKBONE|DICT|INTERRES
   115   59   60 1    
   116   59  125 1    
   117   60   61 1    
   118   60   62 1    
   119   60  126 1    
   120   61  127 1    
   121   61  128 1    
   122   61  129 1    
   123   62   63 2    
   124   62   64 am   BACKBONE|DICT|INTERRES
   125   64   65 1    
   126   64  130 1    
   127   65   66 1    
   128   65   69 1    
   129   65  131 1    
   130   66   67 am   BACKBONE|DICT|INTERRES
   131   66   68 2    
   132   67  132 1    
   133   67  133 1    
   134   69   70 1    
   135   69  134 1    
   136   69  135 1    
   137   70   71 1    
   138   71  136 1    
   139   71  137 1    
@<TRIPOS>SUBSTRUCTURE
     1 UNK         1 GROUP             0       ****    0 ROOT    
