@<TRIPOS>MOLECULE
3R137
137   139    1
SMALL
USER_CHARGES


@<TRIPOS>ATOM
      1 CA         25.4723   -6.2936   -3.4122 C.3       0 UNK        -0.2020 
      2 C          25.6772   -5.6405   -2.0548 C.2       0 UNK         0.4855 
      3 O          24.7996   -5.7307   -1.1960 O.2       0 UNK        -0.5197 
      4 N          26.8351   -4.9973   -1.8491 N.am      1 UNK        -0.4892 
      5 CA         27.2251   -4.3668   -0.5779 C.3       1 UNK         0.0835 
      6 C6         28.7361   -4.0325   -0.5218 C.3       12 UNK        -0.0855 
      7 S7         29.7739   -5.5067   -0.8281 S.3       12 UNK        -0.2931 
      8 C8         31.3004   -4.7857   -1.5221 C.3       12 UNK         0.0378 
      9 C9         31.0517   -3.9334   -2.7611 C.ar      12 UNK        -0.0802 
     10 C10        31.5151   -2.6133   -2.8028 C.ar      12 UNK        -0.0944 
     11 C11        31.2727   -1.8099   -3.9204 C.ar      12 UNK        -0.0787 
     12 C12        30.5421   -2.3341   -4.9898 C.ar      12 UNK        -0.0862 
     13 C13        30.0925   -3.6557   -4.9738 C.ar      12 UNK        -0.0733 
     14 C14        30.3604   -4.4564   -3.8603 C.ar      12 UNK        -0.0832 
     15 C15        29.3367   -4.2128   -6.1720 C.3       12 UNK         0.0240 
     16 S16        27.5947   -4.6005   -5.8074 S.3       12 UNK        -0.2522 
     17 C17        26.9312   -3.0303   -5.1611 C.3       12 UNK        -0.0967 
     18 CA         26.4952   -2.0373   -6.2734 C.3       5 UNK         0.0660 
     19 N          25.2479   -1.3529   -5.9325 N.am      5 UNK        -0.4015 
     20 C          24.4500   -0.7264   -6.8085 C.2       4 UNK         0.4946 
     21 O          24.6313   -0.7304   -8.0259 O.2       4 UNK        -0.5353 
     22 CA         23.2627    0.0635   -6.2256 C.3       4 UNK         0.0277 
     23 CB         22.0141   -0.8286   -6.1383 C.3       4 UNK        -0.1981 
     24 N          23.5436    0.6408   -4.9065 N.am      4 UNK        -0.4209 
     25 C          24.4565    1.5967   -4.6802 C.2       3 UNK         0.4942 
     26 O          25.1114    2.1343   -5.5705 O.2       3 UNK        -0.5208 
     27 CA         24.7283    1.9839   -3.2158 C.3       3 UNK         0.0250 
     28 CB         23.8049    3.1355   -2.7880 C.3       3 UNK        -0.1990 
     29 N          24.6111    0.8794   -2.2556 N.am      3 UNK        -0.4232 
     30 C          25.2718   -0.2858   -2.3134 C.2       2 UNK         0.4993 
     31 O          26.0327   -0.6032   -3.2338 O.2       2 UNK        -0.5286 
     32 CA         24.9927   -1.2732   -1.1745 C.3       2 UNK         0.0209 
     33 CB         23.5395   -1.7838   -1.2250 C.3       2 UNK        -0.1931 
     34 N          25.8990   -2.4142   -1.2744 N.am      2 UNK        -0.4546 
     35 C          26.3734   -3.1232   -0.2428 C.2       1 UNK         0.5154 
     36 O          26.1449   -2.8470    0.9363 O.2       1 UNK        -0.5181 
     37 C          27.5924   -0.9985   -6.5659 C.2       5 UNK         0.5014 
     38 O          28.2770   -1.1008   -7.5841 O.2       5 UNK        -0.5248 
     39 N          27.7169    0.0029   -5.6812 N.am      6 UNK        -0.4434 
     40 CA         28.6858    1.0987   -5.7864 C.3       6 UNK         0.0363 
     41 CB         28.6391    1.9472   -4.5064 C.3       6 UNK        -0.1936 
     42 C          28.4988    1.9874   -7.0283 C.2       6 UNK         0.5081 
     43 O          29.4814    2.5341   -7.5242 O.2       6 UNK        -0.5248 
     44 N          27.2556    2.1157   -7.5085 N.am      7 UNK        -0.4718 
     45 CA         26.9140    2.7984   -8.7567 C.3       7 UNK         0.0273 
     46 CB         25.4152    3.1403   -8.7468 C.3       7 UNK        -0.1935 
     47 C          27.2646    1.9760  -10.0101 C.2       7 UNK         0.5018 
     48 O          27.5165    2.5692  -11.0599 O.2       7 UNK        -0.5186 
     49 N          27.2465    0.6405   -9.8957 N.am      8 UNK        -0.4240 
     50 CA         27.5469   -0.2870  -10.9873 C.3       8 UNK         0.0235 
     51 CB         26.8125   -1.6176  -10.7501 C.3       8 UNK        -0.2000 
     52 C          29.0576   -0.5147  -11.1440 C.2       8 UNK         0.4941 
     53 O          29.5616   -0.4824  -12.2680 O.2       8 UNK        -0.5273 
     54 N          29.7474   -0.7523  -10.0217 N.am      9 UNK        -0.4262 
     55 CA         31.1971   -0.9411   -9.9545 C.3       9 UNK         0.0264 
     56 CB         31.5260   -1.6914   -8.6553 C.3       9 UNK        -0.1955 
     57 C          31.9529    0.3977  -10.0035 C.2       9 UNK         0.5031 
     58 O          31.3626    1.4589   -9.7984 O.2       9 UNK        -0.5390 
     59 N          33.2725    0.3269  -10.2144 N.am      10 UNK        -0.4204 
     60 CA         34.1870    1.4748  -10.2094 C.3       10 UNK         0.0237 
     61 CB         35.3748    1.1666  -11.1418 C.3       10 UNK        -0.1985 
     62 C          34.6367    1.8654   -8.7833 C.2       10 UNK         0.4970 
     63 O          35.8249    2.1095   -8.5632 O.2       10 UNK        -0.4914 
     64 N          33.6936    1.8997   -7.8343 N.am      11 UNK        -0.4285 
     65 CA         33.9224    2.2983   -6.4371 C.3       11 UNK         0.1007 
     66 C          34.0886    3.8350   -6.2841 C.2       11 UNK         0.5703 
     67 N          34.7784    4.2801   -5.2423 N.am      11 UNK        -0.7361 
     68 O          33.5786    4.6269   -7.0754 O.2       11 UNK        -0.4986 
     69 C69        32.8122    1.7577   -5.4982 C.3       12 UNK        -0.0947 
     70 S70        32.7804   -0.0631   -5.4633 S.3       12 UNK        -0.2240 
     71 C71        31.7824   -0.3745   -3.9710 C.3       12 UNK         0.0194 
     72 H72        24.8929   -7.2107   -3.3084 H         1 UNK         0.0906 
     73 H73        24.9312   -5.6225   -4.0784 H         1 UNK         0.0906 
     74 H74        26.4228   -6.5537   -3.8770 H         1 UNK         0.0906 
     75 H75        27.5355   -4.9808   -2.5770 H         1 UNK         0.3140 
     76 H76        27.0231   -5.0938    0.2124 H         1 UNK         0.1085 
     77 H77        29.0042   -3.6309    0.4575 H         1 UNK         0.0836 
     78 H78        28.9717   -3.2511   -1.2458 H         1 UNK         0.0836 
     79 H79        31.7930   -4.2029   -0.7421 H         1 UNK         0.0731 
     80 H80        31.9861   -5.5934   -1.7814 H         1 UNK         0.0731 
     81 H81        32.0625   -2.2088   -1.9624 H         1 UNK         0.1312 
     82 H82        30.3379   -1.7110   -5.8465 H         1 UNK         0.1406 
     83 H83        30.0132   -5.4808   -3.8406 H         1 UNK         0.1631 
     84 H84        29.8329   -5.1223   -6.5129 H         1 UNK         0.0717 
     85 H85        29.3717   -3.5191   -7.0124 H         1 UNK         0.0717 
     86 H86        26.0644   -3.3123   -4.5619 H         1 UNK         0.0934 
     87 H87        27.6267   -2.5866   -4.4458 H         1 UNK         0.0934 
     88 H88        26.3145   -2.5950   -7.1954 H         1 UNK         0.0739 
     89 H89        25.0761   -1.2223   -4.9432 H         1 UNK         0.3093 
     90 H90        23.0492    0.8858   -6.9122 H         1 UNK         0.0818 
     91 H91        21.1432   -0.2618   -5.8086 H         1 UNK         0.0819 
     92 H92        21.7708   -1.2538   -7.1133 H         1 UNK         0.0819 
     93 H93        22.1566   -1.6602   -5.4470 H         1 UNK         0.0819 
     94 H94        23.0379    0.2622   -4.1191 H         1 UNK         0.3041 
     95 H95        25.7576    2.3414   -3.1624 H         1 UNK         0.0784 
     96 H96        23.8903    3.9796   -3.4741 H         1 UNK         0.0793 
     97 H97        22.7575    2.8313   -2.7745 H         1 UNK         0.0793 
     98 H98        24.0616    3.5033   -1.7943 H         1 UNK         0.0793 
     99 H99        23.9989    1.0429   -1.4689 H         1 UNK         0.3024 
    100 H100       25.1669   -0.7484   -0.2321 H         1 UNK         0.1171 
    101 H101       22.8223   -0.9697   -1.1155 H         1 UNK         0.0786 
    102 H102       23.3423   -2.4913   -0.4191 H         1 UNK         0.0786 
    103 H103       23.3232   -2.2890   -2.1673 H         1 UNK         0.0786 
    104 H104       26.1932   -2.6486   -2.2121 H         1 UNK         0.2977 
    105 H105       27.1225   -0.0069   -4.8581 H         1 UNK         0.3127 
    106 H106       29.6746    0.6462   -5.8696 H         1 UNK         0.0770 
    107 H107       27.7087    2.5098   -4.4352 H         1 UNK         0.0814 
    108 H108       29.4553    2.6705   -4.4929 H         1 UNK         0.0814 
    109 H109       28.7311    1.3333   -3.6102 H         1 UNK         0.0814 
    110 H110       26.4843    1.7520   -6.9568 H         1 UNK         0.2983 
    111 H111       27.4787    3.7322   -8.8067 H         1 UNK         0.0947 
    112 H112       25.1267    3.6652   -9.6585 H         1 UNK         0.0806 
    113 H113       25.1622    3.7870   -7.9063 H         1 UNK         0.0806 
    114 H114       24.7985    2.2431   -8.6752 H         1 UNK         0.0806 
    115 H115       27.0637    0.2334   -8.9878 H         1 UNK         0.3000 
    116 H116       27.1740    0.1361  -11.9228 H         1 UNK         0.0850 
    117 H117       26.9978   -2.3159  -11.5672 H         1 UNK         0.0810 
    118 H118       25.7343   -1.4679  -10.6884 H         1 UNK         0.0810 
    119 H119       27.1326   -2.1028   -9.8275 H         1 UNK         0.0810 
    120 H120       29.2459   -0.7600   -9.1358 H         1 UNK         0.3040 
    121 H121       31.5143   -1.5495  -10.8041 H         1 UNK         0.0766 
    122 H122       32.5929   -1.8995   -8.5670 H         1 UNK         0.0812 
    123 H123       31.0051   -2.6472   -8.6050 H         1 UNK         0.0812 
    124 H124       31.2361   -1.1022   -7.7868 H         1 UNK         0.0812 
    125 H125       33.6969   -0.5824  -10.3318 H         1 UNK         0.3205 
    126 H126       33.6674    2.3430  -10.6208 H         1 UNK         0.0754 
    127 H127       36.0425    2.0254  -11.2246 H         1 UNK         0.0769 
    128 H128       35.0359    0.9276  -12.1501 H         1 UNK         0.0769 
    129 H129       35.9668    0.3259  -10.7778 H         1 UNK         0.0769 
    130 H130       32.7307    1.7503   -8.1094 H         1 UNK         0.2981 
    131 H131       34.8660    1.8477   -6.1219 H         1 UNK         0.0541 
    132 H132       35.1959    3.6431   -4.5817 H         1 UNK         0.3459 
    133 H133       34.8894    5.2742   -5.1176 H         1 UNK         0.3459 
    134 H134       31.8314    2.1225   -5.8087 H         1 UNK         0.0612 
    135 H135       32.9673    2.1105   -4.4768 H         1 UNK         0.0612 
    136 H136       32.3887   -0.1449   -3.0935 H         1 UNK         0.0624 
    137 H137       30.9318    0.3040   -3.9437 H         1 UNK         0.0624 
@<TRIPOS>BOND
     1    1    2 1    
     2    1   72 1    
     3    1   73 1    
     4    1   74 1    
     5    2    3 2    
     6    2    4 am   BACKBONE|DICT|INTERRES
     7    4    5 1    
     8    4   75 1    
     9    5    6 1    
    10    5   35 1    
    11    5   76 1    
    12    6    7 1    
    13    6   77 1    
    14    6   78 1    
    15    7    8 1    
    16    8    9 1    
    17    8   79 1    
    18    8   80 1    
    19    9   10 ar   
    20    9   14 ar   
    21   10   11 ar   
    22   10   81 1    
    23   11   12 ar   
    24   11   71 1    
    25   12   13 ar   
    26   12   82 1    
    27   13   14 ar   
    28   13   15 1    
    29   14   83 1    
    30   15   16 1    
    31   15   84 1    
    32   15   85 1    
    33   16   17 1    
    34   17   18 1    
    35   17   86 1    
    36   17   87 1    
    37   18   19 1    
    38   18   37 1    
    39   18   88 1    
    40   19   20 am   BACKBONE|DICT|INTERRES
    41   19   89 1    
    42   20   21 2    
    43   20   22 1    
    44   22   23 1    
    45   22   24 1    
    46   22   90 1    
    47   23   91 1    
    48   23   92 1    
    49   23   93 1    
    50   24   25 am   BACKBONE|DICT|INTERRES
    51   24   94 1    
    52   25   26 2    
    53   25   27 1    
    54   27   28 1    
    55   27   29 1    
    56   27   95 1    
    57   28   96 1    
    58   28   97 1    
    59   28   98 1    
    60   29   30 am   BACKBONE|DICT|INTERRES
    61   29   99 1    
    62   30   31 2    
    63   30   32 1    
    64   32   33 1    
    65   32   34 1    
    66   32  100 1    
    67   33  101 1    
    68   33  102 1    
    69   33  103 1    
    70   34   35 am   BACKBONE|DICT|INTERRES
    71   34  104 1    
    72   35   36 2    
    73   37   38 2    
    74   37   39 am   BACKBONE|DICT|INTERRES
    75   39   40 1    
    76   39  105 1    
    77   40   41 1    
    78   40   42 1    
    79   40  106 1    
    80   41  107 1    
    81   41  108 1    
    82   41  109 1    
    83   42   43 2    
    84   42   44 am   BACKBONE|DICT|INTERRES
    85   44   45 1    
    86   44  110 1    
    87   45   46 1    
    88   45   47 1    
    89   45  111 1    
    90   46  112 1    
    91   46  113 1    
    92   46  114 1    
    93   47   48 2    
    94   47   49 am   BACKBONE|DICT|INTERRES
    95   49   50 1    
    96   49  115 1    
    97   50   51 1    
    98   50   52 1    
    99   50  116 1    
   100   51  117 1    
   101   51  118 1    
   102   51  119 1    
   103   52   53 2    
   104   52   54 am   BACKBONE|DICT|INTERRES
   105   54   55 1    
   106   54  120 1    
   107   55   56 1    
   108   55   57 1    
   109   55  121 1    
   110   56  122 1    
   111   56  123 1    
   112   56  124 1    
   113   57   58 2    
   114   57   59 am   BACKBONE|DICT|INTERRES
   115   59   60 1    
   116   59  125 1    
   117   60   61 1    
   118   60   62 1    
   119   60  126 1    
   120   61  127 1    
   121   61  128 1    
   122   61  129 1    
   123   62   63 2    
   124   62   64 am   BACKBONE|DICT|INTERRES
   125   64   65 1    
   126   64  130 1    
   127   65   66 1    
   128   65   69 1    
   129   65  131 1    
   130   66   67 am   BACKBONE|DICT|INTERRES
   131   66   68 2    
   132   67  132 1    
   133   67  133 1    
   134   69   70 1    
   135   69  134 1    
   136   69  135 1    
   137   70   71 1    
   138   71  136 1    
   139   71  137 1    
@<TRIPOS>SUBSTRUCTURE
     1 UNK         1 GROUP             0       ****    0 ROOT    
