@<TRIPOS>MOLECULE
3R137
137   139    1
SMALL
USER_CHARGES


@<TRIPOS>ATOM
      1 CA         25.0258   -6.3288   -4.7101 C.3       0 UNK        -0.2020 
      2 C          25.0389   -5.3684   -3.5311 C.2       0 UNK         0.4855 
      3 O          24.1176   -4.5631   -3.3918 O.2       0 UNK        -0.5197 
      4 N          26.0778   -5.4480   -2.6872 N.am      1 UNK        -0.4892 
      5 CA         26.3166   -4.5862   -1.5239 C.3       1 UNK         0.0835 
      6 C6         27.6065   -4.9432   -0.7227 C.3       12 UNK        -0.0855 
      7 S7         29.1165   -5.5811   -1.5601 S.3       12 UNK        -0.2931 
      8 C8         29.2253   -4.8528   -3.2346 C.3       12 UNK         0.0378 
      9 C9         29.9608   -3.5189   -3.3541 C.ar      12 UNK        -0.0802 
     10 C10        30.4682   -3.1586   -4.6066 C.ar      12 UNK        -0.0944 
     11 C11        31.1113   -1.9346   -4.8066 C.ar      12 UNK        -0.0787 
     12 C12        31.2791   -1.0762   -3.7143 C.ar      12 UNK        -0.0862 
     13 C13        30.7337   -1.3933   -2.4680 C.ar      12 UNK        -0.0733 
     14 C14        30.0893   -2.6214   -2.2880 C.ar      12 UNK        -0.0832 
     15 C15        30.7715   -0.3699   -1.3400 C.3       12 UNK         0.0240 
     16 S16        29.9730    1.2086   -1.8085 S.3       12 UNK        -0.2522 
     17 C17        28.3688    0.6505   -2.4790 C.3       12 UNK        -0.0967 
     18 CA         28.3186    0.7076   -4.0326 C.3       5 UNK         0.0660 
     19 N          27.5664   -0.4136   -4.6032 N.am      5 UNK        -0.4015 
     20 C          27.4766   -0.7102   -5.9087 C.2       4 UNK         0.4946 
     21 O          28.0947   -0.1262   -6.7995 O.2       4 UNK        -0.5353 
     22 CA         26.4847   -1.8183   -6.2986 C.3       4 UNK         0.0277 
     23 CB         27.1486   -3.1999   -6.2479 C.3       4 UNK        -0.1981 
     24 N          25.2895   -1.8131   -5.4520 N.am      4 UNK        -0.4209 
     25 C          24.3567   -0.8506   -5.4768 C.2       3 UNK         0.4942 
     26 O          24.3673    0.0952   -6.2645 O.2       3 UNK        -0.5208 
     27 CA         23.2622   -0.9273   -4.4009 C.3       3 UNK         0.0250 
     28 CB         22.1757   -1.9416   -4.7914 C.3       3 UNK        -0.1990 
     29 N          23.8085   -1.2555   -3.0802 N.am      3 UNK        -0.4232 
     30 C          24.5995   -0.4296   -2.3786 C.2       2 UNK         0.4993 
     31 O          24.9164    0.6950   -2.7619 O.2       2 UNK        -0.5286 
     32 CA         25.1673   -0.9351   -1.0418 C.3       2 UNK         0.0209 
     33 CB         24.2380   -0.5349    0.1150 C.3       2 UNK        -0.1931 
     34 N          25.4195   -2.3772   -0.9845 N.am      2 UNK        -0.4546 
     35 C          26.2035   -3.0741   -1.8201 C.2       1 UNK         0.5154 
     36 O          26.7933   -2.5764   -2.7813 O.2       1 UNK        -0.5181 
     37 C          27.8037    2.0678   -4.5440 C.2       5 UNK         0.5014 
     38 O          28.5999    2.8770   -5.0209 O.2       5 UNK        -0.5248 
     39 N          26.4808    2.2797   -4.4721 N.am      6 UNK        -0.4434 
     40 CA         25.7916    3.4755   -4.9651 C.3       6 UNK         0.0363 
     41 CB         24.3179    3.4360   -4.5308 C.3       6 UNK        -0.1936 
     42 C          25.9011    3.6528   -6.4885 C.2       6 UNK         0.5081 
     43 O          26.0745    4.7793   -6.9543 O.2       6 UNK        -0.5248 
     44 N          25.8222    2.5428   -7.2354 N.am      7 UNK        -0.4718 
     45 CA         26.0242    2.5068   -8.6871 C.3       7 UNK         0.0273 
     46 CB         25.4901    1.1722   -9.2322 C.3       7 UNK        -0.1935 
     47 C          27.4931    2.6996   -9.1110 C.2       7 UNK         0.5018 
     48 O          27.7356    3.0386  -10.2700 O.2       7 UNK        -0.5186 
     49 N          28.4316    2.4535   -8.1836 N.am      8 UNK        -0.4240 
     50 CA         29.8866    2.3976   -8.3630 C.3       8 UNK         0.0235 
     51 CB         30.4583    3.7904   -8.6994 C.3       8 UNK        -0.2000 
     52 C          30.3003    1.3071   -9.3713 C.2       8 UNK         0.4941 
     53 O          31.1704    1.5409  -10.2138 O.2       8 UNK        -0.5273 
     54 N          29.6395    0.1432   -9.2816 N.am      9 UNK        -0.4262 
     55 CA         29.7583   -0.9863  -10.2054 C.3       9 UNK         0.0264 
     56 CB         28.6820   -2.0277   -9.8565 C.3       9 UNK        -0.1955 
     57 C          31.1674   -1.6008  -10.1825 C.2       9 UNK         0.5031 
     58 O          31.4863   -2.3573   -9.2656 O.2       9 UNK        -0.5390 
     59 N          31.9999   -1.2208  -11.1608 N.am      10 UNK        -0.4204 
     60 CA         33.4218   -1.5559  -11.3428 C.3       10 UNK         0.0237 
     61 CB         33.6508   -3.0781  -11.4332 C.3       10 UNK        -0.1985 
     62 C          34.3703   -0.9066  -10.3153 C.2       10 UNK         0.4970 
     63 O          35.4964   -0.5696  -10.6834 O.2       10 UNK        -0.4914 
     64 N          33.9144   -0.7187   -9.0712 N.am      11 UNK        -0.4285 
     65 CA         34.6203    0.0161   -8.0105 C.3       11 UNK         0.1007 
     66 C          34.7596    1.5486   -8.2559 C.2       11 UNK         0.5703 
     67 N          33.9634    2.1651   -9.1228 N.am      11 UNK        -0.7361 
     68 O          35.6229    2.1862   -7.6576 O.2       11 UNK        -0.4986 
     69 C69        34.0418   -0.2968   -6.6035 C.3       12 UNK        -0.0947 
     70 S70        32.2633    0.0897   -6.4543 S.3       12 UNK        -0.2240 
     71 C71        31.5209   -1.5649   -6.2326 C.3       12 UNK         0.0194 
     72 H72        24.9274   -5.7749   -5.6432 H         1 UNK         0.0906 
     73 H73        25.9379   -6.9229   -4.7638 H         1 UNK         0.0906 
     74 H74        24.1793   -7.0099   -4.6281 H         1 UNK         0.0906 
     75 H75        26.7955   -6.1393   -2.8517 H         1 UNK         0.3140 
     76 H76        25.4801   -4.8146   -0.8592 H         1 UNK         0.1085 
     77 H77        27.3383   -5.7254   -0.0104 H         1 UNK         0.0836 
     78 H78        27.9100   -4.1086   -0.0873 H         1 UNK         0.0836 
     79 H79        28.2451   -4.7484   -3.6819 H         1 UNK         0.0731 
     80 H80        29.7484   -5.5849   -3.8519 H         1 UNK         0.0731 
     81 H81        30.3323   -3.8255   -5.4475 H         1 UNK         0.1312 
     82 H82        31.7589   -0.1161   -3.8348 H         1 UNK         0.1406 
     83 H83        29.6581   -2.8593   -1.3269 H         1 UNK         0.1631 
     84 H84        31.8089   -0.1769   -1.0642 H         1 UNK         0.0717 
     85 H85        30.2800   -0.7581   -0.4466 H         1 UNK         0.0717 
     86 H86        28.1962   -0.3671   -2.1284 H         1 UNK         0.0934 
     87 H87        27.5744    1.2450   -2.0236 H         1 UNK         0.0934 
     88 H88        29.3308    0.6018   -4.4243 H         1 UNK         0.0739 
     89 H89        27.0950   -1.0274   -3.9456 H         1 UNK         0.3093 
     90 H90        26.1740   -1.6316   -7.3285 H         1 UNK         0.0818 
     91 H91        28.0850   -3.2131   -6.8052 H         1 UNK         0.0819 
     92 H92        26.5028   -3.9673   -6.6739 H         1 UNK         0.0819 
     93 H93        27.3789   -3.4832   -5.2248 H         1 UNK         0.0819 
     94 H94        25.2284   -2.5256   -4.7365 H         1 UNK         0.3041 
     95 H95        22.7950    0.0579   -4.3353 H         1 UNK         0.0784 
     96 H96        21.7320   -1.6832   -5.7539 H         1 UNK         0.0793 
     97 H97        22.5737   -2.9529   -4.8786 H         1 UNK         0.0793 
     98 H98        21.3691   -1.9607   -4.0584 H         1 UNK         0.0793 
     99 H99        23.6285   -2.1848   -2.7229 H         1 UNK         0.3024 
    100 H100       26.1244   -0.4346   -0.8895 H         1 UNK         0.1171 
    101 H101       24.6771   -0.7809    1.0821 H         1 UNK         0.0786 
    102 H102       24.0516    0.5403    0.1119 H         1 UNK         0.0786 
    103 H103       23.2700   -1.0332    0.0474 H         1 UNK         0.0786 
    104 H104       24.9620   -2.8719   -0.2318 H         1 UNK         0.2977 
    105 H105       25.8981    1.5866   -4.0031 H         1 UNK         0.3127 
    106 H106       26.2620    4.3430   -4.4976 H         1 UNK         0.0770 
    107 H107       23.8018    2.5649   -4.9367 H         1 UNK         0.0814 
    108 H108       23.7843    4.3231   -4.8743 H         1 UNK         0.0814 
    109 H109       24.2257    3.4017   -3.4450 H         1 UNK         0.0814 
    110 H110       25.5983    1.6620   -6.7817 H         1 UNK         0.2983 
    111 H111       25.4453    3.3178   -9.1345 H         1 UNK         0.0947 
    112 H112       25.5850    1.1258  -10.3179 H         1 UNK         0.0806 
    113 H113       24.4351    1.0382   -8.9924 H         1 UNK         0.0806 
    114 H114       26.0375    0.3238   -8.8205 H         1 UNK         0.0806 
    115 H115       28.1068    2.1457   -7.2747 H         1 UNK         0.3000 
    116 H116       30.2945    2.0976   -7.3972 H         1 UNK         0.0850 
    117 H117       31.5483    3.7742   -8.6947 H         1 UNK         0.0810 
    118 H118       30.1426    4.5339   -7.9676 H         1 UNK         0.0810 
    119 H119       30.1422    4.1320   -9.6854 H         1 UNK         0.0810 
    120 H120       28.9997    0.0273   -8.4985 H         1 UNK         0.3040 
    121 H121       29.5528   -0.6176  -11.2124 H         1 UNK         0.0766 
    122 H122       27.6797   -1.6052   -9.9293 H         1 UNK         0.0812 
    123 H123       28.8116   -2.4101   -8.8446 H         1 UNK         0.0812 
    124 H124       28.7278   -2.8798  -10.5357 H         1 UNK         0.0812 
    125 H125       31.6489   -0.5255  -11.8067 H         1 UNK         0.3205 
    126 H126       33.6916   -1.1326  -12.3117 H         1 UNK         0.0754 
    127 H127       34.6845   -3.2984  -11.7032 H         1 UNK         0.0769 
    128 H128       33.0139   -3.5310  -12.1931 H         1 UNK         0.0769 
    129 H129       33.4532   -3.5803  -10.4859 H         1 UNK         0.0769 
    130 H130       32.9892   -1.0657   -8.8444 H         1 UNK         0.2981 
    131 H131       35.6440   -0.3630   -8.0097 H         1 UNK         0.0541 
    132 H132       33.2092    1.6746   -9.5863 H         1 UNK         0.3459 
    133 H133       34.0837    3.1529   -9.2759 H         1 UNK         0.3459 
    134 H134       34.2108   -1.3473   -6.3646 H         1 UNK         0.0612 
    135 H135       34.5780    0.2612   -5.8338 H         1 UNK         0.0612 
    136 H136       30.6194   -1.5898   -6.8464 H         1 UNK         0.0624 
    137 H137       32.1817   -2.3337   -6.6339 H         1 UNK         0.0624 
@<TRIPOS>BOND
     1    1    2 1    
     2    1   72 1    
     3    1   73 1    
     4    1   74 1    
     5    2    3 2    
     6    2    4 am   BACKBONE|DICT|INTERRES
     7    4    5 1    
     8    4   75 1    
     9    5    6 1    
    10    5   35 1    
    11    5   76 1    
    12    6    7 1    
    13    6   77 1    
    14    6   78 1    
    15    7    8 1    
    16    8    9 1    
    17    8   79 1    
    18    8   80 1    
    19    9   10 ar   
    20    9   14 ar   
    21   10   11 ar   
    22   10   81 1    
    23   11   12 ar   
    24   11   71 1    
    25   12   13 ar   
    26   12   82 1    
    27   13   14 ar   
    28   13   15 1    
    29   14   83 1    
    30   15   16 1    
    31   15   84 1    
    32   15   85 1    
    33   16   17 1    
    34   17   18 1    
    35   17   86 1    
    36   17   87 1    
    37   18   19 1    
    38   18   37 1    
    39   18   88 1    
    40   19   20 am   BACKBONE|DICT|INTERRES
    41   19   89 1    
    42   20   21 2    
    43   20   22 1    
    44   22   23 1    
    45   22   24 1    
    46   22   90 1    
    47   23   91 1    
    48   23   92 1    
    49   23   93 1    
    50   24   25 am   BACKBONE|DICT|INTERRES
    51   24   94 1    
    52   25   26 2    
    53   25   27 1    
    54   27   28 1    
    55   27   29 1    
    56   27   95 1    
    57   28   96 1    
    58   28   97 1    
    59   28   98 1    
    60   29   30 am   BACKBONE|DICT|INTERRES
    61   29   99 1    
    62   30   31 2    
    63   30   32 1    
    64   32   33 1    
    65   32   34 1    
    66   32  100 1    
    67   33  101 1    
    68   33  102 1    
    69   33  103 1    
    70   34   35 am   BACKBONE|DICT|INTERRES
    71   34  104 1    
    72   35   36 2    
    73   37   38 2    
    74   37   39 am   BACKBONE|DICT|INTERRES
    75   39   40 1    
    76   39  105 1    
    77   40   41 1    
    78   40   42 1    
    79   40  106 1    
    80   41  107 1    
    81   41  108 1    
    82   41  109 1    
    83   42   43 2    
    84   42   44 am   BACKBONE|DICT|INTERRES
    85   44   45 1    
    86   44  110 1    
    87   45   46 1    
    88   45   47 1    
    89   45  111 1    
    90   46  112 1    
    91   46  113 1    
    92   46  114 1    
    93   47   48 2    
    94   47   49 am   BACKBONE|DICT|INTERRES
    95   49   50 1    
    96   49  115 1    
    97   50   51 1    
    98   50   52 1    
    99   50  116 1    
   100   51  117 1    
   101   51  118 1    
   102   51  119 1    
   103   52   53 2    
   104   52   54 am   BACKBONE|DICT|INTERRES
   105   54   55 1    
   106   54  120 1    
   107   55   56 1    
   108   55   57 1    
   109   55  121 1    
   110   56  122 1    
   111   56  123 1    
   112   56  124 1    
   113   57   58 2    
   114   57   59 am   BACKBONE|DICT|INTERRES
   115   59   60 1    
   116   59  125 1    
   117   60   61 1    
   118   60   62 1    
   119   60  126 1    
   120   61  127 1    
   121   61  128 1    
   122   61  129 1    
   123   62   63 2    
   124   62   64 am   BACKBONE|DICT|INTERRES
   125   64   65 1    
   126   64  130 1    
   127   65   66 1    
   128   65   69 1    
   129   65  131 1    
   130   66   67 am   BACKBONE|DICT|INTERRES
   131   66   68 2    
   132   67  132 1    
   133   67  133 1    
   134   69   70 1    
   135   69  134 1    
   136   69  135 1    
   137   70   71 1    
   138   71  136 1    
   139   71  137 1    
@<TRIPOS>SUBSTRUCTURE
     1 UNK         1 GROUP             0       ****    0 ROOT    
