@<TRIPOS>MOLECULE
3R137
137   139    1
SMALL
USER_CHARGES


@<TRIPOS>ATOM
      1 CA         26.6989    0.1058    3.9545 C.3       0 UNK        -0.2020 
      2 C          27.0523   -0.7202    2.7262 C.2       0 UNK         0.4855 
      3 O          26.9783   -1.9485    2.7778 O.2       0 UNK        -0.5197 
      4 N          27.4406   -0.0524    1.6305 N.am      1 UNK        -0.4892 
      5 CA         27.7744   -0.6395    0.3249 C.3       1 UNK         0.0835 
      6 C6         28.9895   -1.6096    0.4016 C.3       12 UNK        -0.0855 
      7 S7         29.9352   -1.6699   -1.1559 S.3       12 UNK        -0.2931 
      8 C8         30.5422   -3.3842   -1.1369 C.3       12 UNK         0.0378 
      9 C9         30.9332   -3.8124   -2.5398 C.ar      12 UNK        -0.0802 
     10 C10        32.2463   -3.6667   -2.9928 C.ar      12 UNK        -0.0944 
     11 C11        32.5883   -4.0189   -4.3037 C.ar      12 UNK        -0.0787 
     12 C12        31.6033   -4.5360   -5.1548 C.ar      12 UNK        -0.0862 
     13 C13        30.2871   -4.6940   -4.7064 C.ar      12 UNK        -0.0733 
     14 C14        29.9643   -4.3373   -3.3956 C.ar      12 UNK        -0.0832 
     15 C15        29.2046   -5.2541   -5.6222 C.3       12 UNK         0.0240 
     16 S16        28.8634   -4.1960   -7.0666 S.3       12 UNK        -0.2522 
     17 C17        28.7062   -2.5341   -6.3323 C.3       12 UNK        -0.0967 
     18 CA         27.8247   -1.6135   -7.2098 C.3       5 UNK         0.0660 
     19 N          26.3943   -1.9080   -7.0910 N.am      5 UNK        -0.4015 
     20 C          25.4532   -1.4203   -7.9125 C.2       4 UNK         0.4946 
     21 O          25.6885   -0.6800   -8.8684 O.2       4 UNK        -0.5353 
     22 CA         23.9977   -1.7882   -7.5841 C.3       4 UNK         0.0277 
     23 CB         23.7050   -3.2543   -7.9434 C.3       4 UNK        -0.1981 
     24 N          23.6571   -1.5401   -6.1807 N.am      4 UNK        -0.4209 
     25 C          23.6442   -0.3261   -5.6114 C.2       3 UNK         0.4942 
     26 O          23.9078    0.7157   -6.2085 O.2       3 UNK        -0.5208 
     27 CA         23.3133   -0.2584   -4.1127 C.3       3 UNK         0.0250 
     28 CB         21.7914   -0.2435   -3.8970 C.3       3 UNK        -0.1990 
     29 N          23.9150   -1.3251   -3.3061 N.am      3 UNK        -0.4232 
     30 C          25.2257   -1.5938   -3.2339 C.2       2 UNK         0.4993 
     31 O          26.0859   -1.0599   -3.9394 O.2       2 UNK        -0.5286 
     32 CA         25.6552   -2.6522   -2.2095 C.3       2 UNK         0.0209 
     33 CB         26.1414   -3.9225   -2.9244 C.3       2 UNK        -0.1931 
     34 N          26.7207   -2.1161   -1.3590 N.am      2 UNK        -0.4546 
     35 C          26.5219   -1.2202   -0.3817 C.2       1 UNK         0.5154 
     36 O          25.3977   -0.8248   -0.0573 O.2       1 UNK        -0.5181 
     37 C          28.1290   -0.1318   -6.9343 C.2       5 UNK         0.5014 
     38 O          28.9580    0.4388   -7.6443 O.2       5 UNK        -0.5248 
     39 N          27.4491    0.4677   -5.9459 N.am      6 UNK        -0.4434 
     40 CA         27.5508    1.8902   -5.6175 C.3       6 UNK         0.0363 
     41 CB         26.7943    2.1783   -4.3111 C.3       6 UNK        -0.1936 
     42 C          27.0547    2.8014   -6.7533 C.2       6 UNK         0.5081 
     43 O          27.7443    3.7625   -7.0931 O.2       6 UNK        -0.5248 
     44 N          25.8913    2.4765   -7.3370 N.am      7 UNK        -0.4718 
     45 CA         25.2953    3.2075   -8.4600 C.3       7 UNK         0.0273 
     46 CB         23.8534    2.7279   -8.6900 C.3       7 UNK        -0.1935 
     47 C          26.1134    3.0900   -9.7549 C.2       7 UNK         0.5018 
     48 O          26.2770    4.0884  -10.4574 O.2       7 UNK        -0.5186 
     49 N          26.6240    1.8841  -10.0407 N.am      8 UNK        -0.4240 
     50 CA         27.4881    1.6108  -11.1922 C.3       8 UNK         0.0235 
     51 CB         27.5240    0.0936  -11.4397 C.3       8 UNK        -0.2000 
     52 C          28.9212    2.1509  -11.0318 C.2       8 UNK         0.4941 
     53 O          29.6197    2.2813  -12.0377 O.2       8 UNK        -0.5273 
     54 N          29.3429    2.4058   -9.7825 N.am      9 UNK        -0.4262 
     55 CA         30.7145    2.6934   -9.3410 C.3       9 UNK         0.0264 
     56 CB         31.2112    4.0462   -9.8923 C.3       9 UNK        -0.1955 
     57 C          31.6717    1.5223   -9.6460 C.2       9 UNK         0.5031 
     58 O          32.8338    1.7409   -9.9947 O.2       9 UNK        -0.5390 
     59 N          31.1555    0.2914   -9.5138 N.am      10 UNK        -0.4204 
     60 CA         31.8158   -0.9564   -9.9101 C.3       10 UNK         0.0237 
     61 CB         30.8047   -2.1111   -9.8387 C.3       10 UNK        -0.1985 
     62 C          33.0646   -1.2866   -9.0791 C.2       10 UNK         0.4970 
     63 O          33.9874   -1.9142   -9.5998 O.2       10 UNK        -0.4914 
     64 N          33.0699   -0.8491   -7.8153 N.am      11 UNK        -0.4285 
     65 CA         34.2050   -0.9604   -6.8918 C.3       11 UNK         0.1007 
     66 C          35.2682    0.1691   -7.0568 C.2       11 UNK         0.5703 
     67 N          35.0921    1.1345   -7.9538 N.am      11 UNK        -0.7361 
     68 O          36.2855    0.1655   -6.3683 O.2       11 UNK        -0.4986 
     69 C69        33.6994   -1.1152   -5.4305 C.3       12 UNK        -0.0947 
     70 S70        34.7491   -2.2244   -4.4339 S.3       12 UNK        -0.2240 
     71 C71        34.0215   -3.8586   -4.8023 C.3       12 UNK         0.0194 
     72 H72        27.3372   -0.1750    4.7918 H         1 UNK         0.0906 
     73 H73        25.6629   -0.0733    4.2407 H         1 UNK         0.0906 
     74 H74        26.8219    1.1743    3.7785 H         1 UNK         0.0906 
     75 H75        27.4456    0.9583    1.6542 H         1 UNK         0.3140 
     76 H76        28.0701    0.2139   -0.2881 H         1 UNK         0.1085 
     77 H77        28.6710   -2.6084    0.7059 H         1 UNK         0.0836 
     78 H78        29.6853   -1.2762    1.1735 H         1 UNK         0.0836 
     79 H79        31.3919   -3.4632   -0.4568 H         1 UNK         0.0731 
     80 H80        29.7726   -4.0554   -0.7523 H         1 UNK         0.0731 
     81 H81        32.9990   -3.2624   -2.3299 H         1 UNK         0.1312 
     82 H82        31.8550   -4.8127   -6.1697 H         1 UNK         0.1406 
     83 H83        28.9544   -4.4608   -3.0355 H         1 UNK         0.1631 
     84 H84        28.2720   -5.4032   -5.0758 H         1 UNK         0.0717 
     85 H85        29.5106   -6.2401   -5.9740 H         1 UNK         0.0717 
     86 H86        28.3095   -2.5994   -5.3179 H         1 UNK         0.0934 
     87 H87        29.7197   -2.1374   -6.2353 H         1 UNK         0.0934 
     88 H88        28.0953   -1.7819   -8.2546 H         1 UNK         0.0739 
     89 H89        26.1120   -2.4765   -6.3072 H         1 UNK         0.3093 
     90 H90        23.3541   -1.1544   -8.1984 H         1 UNK         0.0818 
     91 H91        23.9484   -3.4545   -8.9879 H         1 UNK         0.0819 
     92 H92        24.2852   -3.9492   -7.3351 H         1 UNK         0.0819 
     93 H93        22.6495   -3.4916   -7.8086 H         1 UNK         0.0819 
     94 H94        23.4261   -2.3405   -5.6106 H         1 UNK         0.3041 
     95 H95        23.7138    0.6860   -3.7387 H         1 UNK         0.0784 
     96 H96        21.3233    0.5548   -4.4752 H         1 UNK         0.0793 
     97 H97        21.3287   -1.1823   -4.2038 H         1 UNK         0.0793 
     98 H98        21.5400   -0.0706   -2.8503 H         1 UNK         0.0793 
     99 H99        23.2869   -1.8236   -2.6920 H         1 UNK         0.3024 
    100 H100       24.8065   -2.9172   -1.5743 H         1 UNK         0.1171 
    101 H101       26.9182   -3.7002   -3.6549 H         1 UNK         0.0786 
    102 H102       26.5332   -4.6547   -2.2182 H         1 UNK         0.0786 
    103 H103       25.3222   -4.4000   -3.4635 H         1 UNK         0.0786 
    104 H104       27.6742   -2.3288   -1.6203 H         1 UNK         0.2977 
    105 H105       26.8291   -0.0913   -5.3620 H         1 UNK         0.3127 
    106 H106       28.6069    2.1139   -5.4521 H         1 UNK         0.0770 
    107 H107       26.8876    3.2278   -4.0293 H         1 UNK         0.0814 
    108 H108       25.7308    1.9581   -4.4045 H         1 UNK         0.0814 
    109 H109       27.1869    1.5832   -3.4863 H         1 UNK         0.0814 
    110 H110       25.3527    1.6946   -6.9696 H         1 UNK         0.2983 
    111 H111       25.2616    4.2649   -8.1886 H         1 UNK         0.0947 
    112 H112       23.8150    1.6617   -8.9179 H         1 UNK         0.0806 
    113 H113       23.3910    3.2589   -9.5232 H         1 UNK         0.0806 
    114 H114       23.2336    2.9033   -7.8106 H         1 UNK         0.0806 
    115 H115       26.3878    1.0941   -9.4450 H         1 UNK         0.3000 
    116 H116       27.0540    2.0910  -12.0719 H         1 UNK         0.0850 
    117 H117       28.1471   -0.1512  -12.3010 H         1 UNK         0.0810 
    118 H118       26.5266   -0.2989  -11.6387 H         1 UNK         0.0810 
    119 H119       27.9271   -0.4429  -10.5801 H         1 UNK         0.0810 
    120 H120       28.6877    2.2298   -9.0305 H         1 UNK         0.3040 
    121 H121       30.6702    2.7754   -8.2538 H         1 UNK         0.0766 
    122 H122       31.3481    4.0193  -10.9737 H         1 UNK         0.0812 
    123 H123       32.1713    4.3172   -9.4516 H         1 UNK         0.0812 
    124 H124       30.5104    4.8485   -9.6616 H         1 UNK         0.0812 
    125 H125       30.2250    0.2214   -9.1103 H         1 UNK         0.3205 
    126 H126       32.1348   -0.8436  -10.9484 H         1 UNK         0.0754 
    127 H127       31.2557   -3.0468  -10.1722 H         1 UNK         0.0769 
    128 H128       29.9396   -1.9258  -10.4750 H         1 UNK         0.0769 
    129 H129       30.4495   -2.2681   -8.8206 H         1 UNK         0.0769 
    130 H130       32.2745   -0.3235   -7.4854 H         1 UNK         0.2981 
    131 H131       34.7302   -1.8802   -7.1554 H         1 UNK         0.0541 
    132 H132       35.7976    1.8480   -8.0441 H         1 UNK         0.3459 
    133 H133       34.2822    1.1543   -8.5612 H         1 UNK         0.3459 
    134 H134       32.6843   -1.5149   -5.4113 H         1 UNK         0.0612 
    135 H135       33.6344   -0.1475   -4.9297 H         1 UNK         0.0612 
    136 H136       34.6389   -4.6269   -4.3354 H         1 UNK         0.0624 
    137 H137       34.0781   -4.0289   -5.8786 H         1 UNK         0.0624 
@<TRIPOS>BOND
     1    1    2 1    
     2    1   72 1    
     3    1   73 1    
     4    1   74 1    
     5    2    3 2    
     6    2    4 am   BACKBONE|DICT|INTERRES
     7    4    5 1    
     8    4   75 1    
     9    5    6 1    
    10    5   35 1    
    11    5   76 1    
    12    6    7 1    
    13    6   77 1    
    14    6   78 1    
    15    7    8 1    
    16    8    9 1    
    17    8   79 1    
    18    8   80 1    
    19    9   10 ar   
    20    9   14 ar   
    21   10   11 ar   
    22   10   81 1    
    23   11   12 ar   
    24   11   71 1    
    25   12   13 ar   
    26   12   82 1    
    27   13   14 ar   
    28   13   15 1    
    29   14   83 1    
    30   15   16 1    
    31   15   84 1    
    32   15   85 1    
    33   16   17 1    
    34   17   18 1    
    35   17   86 1    
    36   17   87 1    
    37   18   19 1    
    38   18   37 1    
    39   18   88 1    
    40   19   20 am   BACKBONE|DICT|INTERRES
    41   19   89 1    
    42   20   21 2    
    43   20   22 1    
    44   22   23 1    
    45   22   24 1    
    46   22   90 1    
    47   23   91 1    
    48   23   92 1    
    49   23   93 1    
    50   24   25 am   BACKBONE|DICT|INTERRES
    51   24   94 1    
    52   25   26 2    
    53   25   27 1    
    54   27   28 1    
    55   27   29 1    
    56   27   95 1    
    57   28   96 1    
    58   28   97 1    
    59   28   98 1    
    60   29   30 am   BACKBONE|DICT|INTERRES
    61   29   99 1    
    62   30   31 2    
    63   30   32 1    
    64   32   33 1    
    65   32   34 1    
    66   32  100 1    
    67   33  101 1    
    68   33  102 1    
    69   33  103 1    
    70   34   35 am   BACKBONE|DICT|INTERRES
    71   34  104 1    
    72   35   36 2    
    73   37   38 2    
    74   37   39 am   BACKBONE|DICT|INTERRES
    75   39   40 1    
    76   39  105 1    
    77   40   41 1    
    78   40   42 1    
    79   40  106 1    
    80   41  107 1    
    81   41  108 1    
    82   41  109 1    
    83   42   43 2    
    84   42   44 am   BACKBONE|DICT|INTERRES
    85   44   45 1    
    86   44  110 1    
    87   45   46 1    
    88   45   47 1    
    89   45  111 1    
    90   46  112 1    
    91   46  113 1    
    92   46  114 1    
    93   47   48 2    
    94   47   49 am   BACKBONE|DICT|INTERRES
    95   49   50 1    
    96   49  115 1    
    97   50   51 1    
    98   50   52 1    
    99   50  116 1    
   100   51  117 1    
   101   51  118 1    
   102   51  119 1    
   103   52   53 2    
   104   52   54 am   BACKBONE|DICT|INTERRES
   105   54   55 1    
   106   54  120 1    
   107   55   56 1    
   108   55   57 1    
   109   55  121 1    
   110   56  122 1    
   111   56  123 1    
   112   56  124 1    
   113   57   58 2    
   114   57   59 am   BACKBONE|DICT|INTERRES
   115   59   60 1    
   116   59  125 1    
   117   60   61 1    
   118   60   62 1    
   119   60  126 1    
   120   61  127 1    
   121   61  128 1    
   122   61  129 1    
   123   62   63 2    
   124   62   64 am   BACKBONE|DICT|INTERRES
   125   64   65 1    
   126   64  130 1    
   127   65   66 1    
   128   65   69 1    
   129   65  131 1    
   130   66   67 am   BACKBONE|DICT|INTERRES
   131   66   68 2    
   132   67  132 1    
   133   67  133 1    
   134   69   70 1    
   135   69  134 1    
   136   69  135 1    
   137   70   71 1    
   138   71  136 1    
   139   71  137 1    
@<TRIPOS>SUBSTRUCTURE
     1 UNK         1 GROUP             0       ****    0 ROOT    
