@<TRIPOS>MOLECULE
3R137
137   139    1
SMALL
USER_CHARGES


@<TRIPOS>ATOM
      1 CA         29.8224   -0.6128   -4.2937 C.3       0 UNK        -0.2020 
      2 C          30.5712   -0.2204   -3.0264 C.2       0 UNK         0.4855 
      3 O          31.2707    0.7912   -3.0302 O.2       0 UNK        -0.5197 
      4 N          30.4769   -0.9931   -1.9353 N.am      1 UNK        -0.4892 
      5 CA         29.5982   -2.1564   -1.7593 C.3       1 UNK         0.0835 
      6 C6         30.1339   -3.0842   -0.6394 C.3       12 UNK        -0.0855 
      7 S7         29.3412   -4.7313   -0.6219 S.3       12 UNK        -0.2931 
      8 C8         30.5417   -5.7564   -1.5336 C.3       12 UNK         0.0378 
      9 C9         30.6133   -5.3707   -3.0040 C.ar      12 UNK        -0.0802 
     10 C10        31.7393   -4.7131   -3.5081 C.ar      12 UNK        -0.0944 
     11 C11        31.7956   -4.3262   -4.8512 C.ar      12 UNK        -0.0787 
     12 C12        30.7183   -4.6151   -5.6941 C.ar      12 UNK        -0.0862 
     13 C13        29.5909   -5.2828   -5.2045 C.ar      12 UNK        -0.0733 
     14 C14        29.5475   -5.6643   -3.8603 C.ar      12 UNK        -0.0832 
     15 C15        28.4174   -5.5893   -6.1264 C.3       12 UNK         0.0240 
     16 S16        26.9569   -4.5741   -5.7327 S.3       12 UNK        -0.2522 
     17 C17        27.5814   -2.8905   -6.0447 C.3       12 UNK        -0.0967 
     18 CA         26.6834   -2.0754   -7.0041 C.3       5 UNK         0.0660 
     19 N          25.3117   -1.9300   -6.5174 N.am      5 UNK        -0.4015 
     20 C          24.2584   -1.6303   -7.2897 C.2       4 UNK         0.4946 
     21 O          24.3124   -1.5302   -8.5156 O.2       4 UNK        -0.5353 
     22 CA         22.9170   -1.3825   -6.5757 C.3       4 UNK         0.0277 
     23 CB         22.1139   -2.6892   -6.4741 C.3       4 UNK        -0.1981 
     24 N          23.0714   -0.8013   -5.2389 N.am      4 UNK        -0.4209 
     25 C          23.5470    0.4286   -4.9943 C.2       3 UNK         0.4942 
     26 O          23.8638    1.2287   -5.8745 O.2       3 UNK        -0.5208 
     27 CA         23.7584    0.8045   -3.5155 C.3       3 UNK         0.0250 
     28 CB         22.4598    1.3595   -2.9092 C.3       3 UNK        -0.1990 
     29 N          24.2605   -0.2993   -2.6839 N.am      3 UNK        -0.4232 
     30 C          25.3993   -0.9679   -2.9136 C.2       2 UNK         0.4993 
     31 O          26.1274   -0.7515   -3.8844 O.2       2 UNK        -0.5286 
     32 CA         25.7460   -2.1116   -1.9465 C.3       2 UNK         0.0209 
     33 CB         24.9353   -3.3693   -2.3016 C.3       2 UNK        -0.1931 
     34 N          27.1715   -2.4469   -1.9995 N.am      2 UNK        -0.4546 
     35 C          28.1507   -1.6884   -1.4903 C.2       1 UNK         0.5154 
     36 O          27.9490   -0.6669   -0.8274 O.2       1 UNK        -0.5181 
     37 C          27.2951   -0.6885   -7.2632 C.2       5 UNK         0.5014 
     38 O          27.8670   -0.4736   -8.3303 O.2       5 UNK        -0.5248 
     39 N          27.1331    0.2364   -6.3038 N.am      6 UNK        -0.4434 
     40 CA         27.6478    1.6093   -6.3510 C.3       6 UNK         0.0363 
     41 CB         27.3589    2.3174   -5.0191 C.3       6 UNK        -0.1936 
     42 C          27.1160    2.4349   -7.5332 C.2       6 UNK         0.5081 
     43 O          27.8389    3.2882   -8.0469 O.2       6 UNK        -0.5248 
     44 N          25.8850    2.1371   -7.9704 N.am      7 UNK        -0.4718 
     45 CA         25.2729    2.6754   -9.1865 C.3       7 UNK         0.0273 
     46 CB         23.7996    2.2405   -9.2383 C.3       7 UNK        -0.1935 
     47 C          26.0006    2.2666  -10.4832 C.2       7 UNK         0.5018 
     48 O          25.9177    3.0049  -11.4658 O.2       7 UNK        -0.5186 
     49 N          26.6923    1.1177  -10.4713 N.am      8 UNK        -0.4240 
     50 CA         27.5183    0.6337  -11.5768 C.3       8 UNK         0.0235 
     51 CB         27.3921   -0.8951  -11.6949 C.3       8 UNK        -0.2000 
     52 C          28.9827    1.0569  -11.3897 C.2       8 UNK         0.4941 
     53 O          29.5678    1.6106  -12.3218 O.2       8 UNK        -0.5273 
     54 N          29.5477    0.8061  -10.2007 N.am      9 UNK        -0.4262 
     55 CA         30.9204    1.1515   -9.8406 C.3       9 UNK         0.0264 
     56 CB         31.9059    0.1189  -10.4217 C.3       9 UNK        -0.1955 
     57 C          31.0399    1.2277   -8.3154 C.2       9 UNK         0.5031 
     58 O          30.9145    0.2027   -7.6429 O.2       9 UNK        -0.5390 
     59 N          31.3011    2.4311   -7.7919 N.am      10 UNK        -0.4204 
     60 CA         31.5511    2.6921   -6.3734 C.3       10 UNK         0.0237 
     61 CB         31.2519    4.1725   -6.0753 C.3       10 UNK        -0.1985 
     62 C          32.9872    2.2886   -5.9966 C.2       10 UNK         0.4970 
     63 O          33.8685    3.1476   -5.9289 O.2       10 UNK        -0.4914 
     64 N          33.2010    0.9817   -5.8068 N.am      11 UNK        -0.4285 
     65 CA         34.4864    0.3802   -5.4184 C.3       11 UNK         0.1007 
     66 C          35.0206    0.8010   -4.0166 C.2       11 UNK         0.5703 
     67 N          34.1753    1.2154   -3.0797 N.am      11 UNK        -0.7361 
     68 O          36.2267    0.7618   -3.7841 O.2       11 UNK        -0.4986 
     69 C69        34.4722   -1.1627   -5.5945 C.3       12 UNK        -0.0947 
     70 S70        33.2047   -1.9793   -4.5696 S.3       12 UNK        -0.2240 
     71 C71        33.0145   -3.5881   -5.3884 C.3       12 UNK         0.0194 
     72 H72        28.7493   -0.5479   -4.1328 H         1 UNK         0.0906 
     73 H73        30.0755    0.0552   -5.1126 H         1 UNK         0.0906 
     74 H74        30.0826   -1.6216   -4.6123 H         1 UNK         0.0906 
     75 H75        30.9629   -0.6947   -1.1021 H         1 UNK         0.3140 
     76 H76        29.6044   -2.7305   -2.6869 H         1 UNK         0.1085 
     77 H77        31.2099   -3.2247   -0.7567 H         1 UNK         0.0836 
     78 H78        30.0028   -2.6228    0.3415 H         1 UNK         0.0836 
     79 H79        31.5213   -5.6806   -1.0588 H         1 UNK         0.0731 
     80 H80        30.2448   -6.8030   -1.4527 H         1 UNK         0.0731 
     81 H81        32.5680   -4.4817   -2.8526 H         1 UNK         0.1312 
     82 H82        30.7555   -4.3152   -6.7326 H         1 UNK         0.1406 
     83 H83        28.6738   -6.1732   -3.4753 H         1 UNK         0.1631 
     84 H84        28.1510   -6.6429   -6.0317 H         1 UNK         0.0717 
     85 H85        28.6899   -5.4356   -7.1717 H         1 UNK         0.0717 
     86 H86        27.6766   -2.4001   -5.0775 H         1 UNK         0.0934 
     87 H87        28.5912   -2.9457   -6.4538 H         1 UNK         0.0934 
     88 H88        26.6531   -2.6036   -7.9599 H         1 UNK         0.0739 
     89 H89        25.1964   -1.9434   -5.5139 H         1 UNK         0.3093 
     90 H90        22.3483   -0.6759   -7.1844 H         1 UNK         0.0818 
     91 H91        21.1269   -2.5170   -6.0443 H         1 UNK         0.0819 
     92 H92        21.9626   -3.1305   -7.4604 H         1 UNK         0.0819 
     93 H93        22.6243   -3.4325   -5.8601 H         1 UNK         0.0819 
     94 H94        22.8277   -1.3860   -4.4528 H         1 UNK         0.3041 
     95 H95        24.5088    1.5965   -3.4868 H         1 UNK         0.0784 
     96 H96        22.0787    2.1932   -3.5009 H         1 UNK         0.0793 
     97 H97        21.6749    0.6032   -2.8684 H         1 UNK         0.0793 
     98 H98        22.6213    1.7318   -1.8973 H         1 UNK         0.0793 
     99 H99        23.7050   -0.5436   -1.8762 H         1 UNK         0.3024 
    100 H100       25.4988   -1.7971   -0.9299 H         1 UNK         0.1171 
    101 H101       23.8630   -3.1834   -2.2288 H         1 UNK         0.0786 
    102 H102       25.1638   -4.1916   -1.6230 H         1 UNK         0.0786 
    103 H103       25.1392   -3.7095   -3.3178 H         1 UNK         0.0786 
    104 H104       27.4168   -3.2767   -2.5197 H         1 UNK         0.2977 
    105 H105       26.6626   -0.0415   -5.4427 H         1 UNK         0.3127 
    106 H106       28.7275    1.5391   -6.4725 H         1 UNK         0.0770 
    107 H107       26.2880    2.4342   -4.8538 H         1 UNK         0.0814 
    108 H108       27.8017    3.3142   -5.0057 H         1 UNK         0.0814 
    109 H109       27.7721    1.7679   -4.1733 H         1 UNK         0.0814 
    110 H110       25.3287    1.4858   -7.4270 H         1 UNK         0.2983 
    111 H111       25.3095    3.7650   -9.1224 H         1 UNK         0.0947 
    112 H112       23.3013    2.6487  -10.1187 H         1 UNK         0.0806 
    113 H113       23.2513    2.5911   -8.3636 H         1 UNK         0.0806 
    114 H114       23.7021    1.1548   -9.2807 H         1 UNK         0.0806 
    115 H115       26.7582    0.5960   -9.6035 H         1 UNK         0.3000 
    116 H116       27.1640    1.0646  -12.5159 H         1 UNK         0.0850 
    117 H117       27.9806   -1.2690  -12.5337 H         1 UNK         0.0810 
    118 H118       26.3575   -1.1930  -11.8662 H         1 UNK         0.0810 
    119 H119       27.7416   -1.4086  -10.7991 H         1 UNK         0.0810 
    120 H120       29.0027    0.3432   -9.4713 H         1 UNK         0.3040 
    121 H121       31.1590    2.1320  -10.2588 H         1 UNK         0.0766 
    122 H122       32.9296    0.3429  -10.1193 H         1 UNK         0.0812 
    123 H123       31.8840    0.1144  -11.5114 H         1 UNK         0.0812 
    124 H124       31.6771   -0.8909  -10.0783 H         1 UNK         0.0812 
    125 H125       31.4032    3.2196   -8.4148 H         1 UNK         0.3205 
    126 H126       30.8699    2.0968   -5.7653 H         1 UNK         0.0754 
    127 H127       31.4310    4.4005   -5.0237 H         1 UNK         0.0769 
    128 H128       30.2092    4.4130   -6.2855 H         1 UNK         0.0769 
    129 H129       31.8766    4.8431   -6.6667 H         1 UNK         0.0769 
    130 H130       32.4296    0.3397   -5.9355 H         1 UNK         0.2981 
    131 H131       35.2197    0.7632   -6.1306 H         1 UNK         0.0541 
    132 H132       33.1718    1.1779   -3.2325 H         1 UNK         0.3459 
    133 H133       34.5344    1.4923   -2.1808 H         1 UNK         0.3459 
    134 H134       35.4476   -1.5913   -5.3572 H         1 UNK         0.0612 
    135 H135       34.2836   -1.4050   -6.6415 H         1 UNK         0.0612 
    136 H136       32.9288   -3.4356   -6.4654 H         1 UNK         0.0624 
    137 H137       33.9106   -4.1877   -5.2234 H         1 UNK         0.0624 
@<TRIPOS>BOND
     1    1    2 1    
     2    1   72 1    
     3    1   73 1    
     4    1   74 1    
     5    2    3 2    
     6    2    4 am   BACKBONE|DICT|INTERRES
     7    4    5 1    
     8    4   75 1    
     9    5    6 1    
    10    5   35 1    
    11    5   76 1    
    12    6    7 1    
    13    6   77 1    
    14    6   78 1    
    15    7    8 1    
    16    8    9 1    
    17    8   79 1    
    18    8   80 1    
    19    9   10 ar   
    20    9   14 ar   
    21   10   11 ar   
    22   10   81 1    
    23   11   12 ar   
    24   11   71 1    
    25   12   13 ar   
    26   12   82 1    
    27   13   14 ar   
    28   13   15 1    
    29   14   83 1    
    30   15   16 1    
    31   15   84 1    
    32   15   85 1    
    33   16   17 1    
    34   17   18 1    
    35   17   86 1    
    36   17   87 1    
    37   18   19 1    
    38   18   37 1    
    39   18   88 1    
    40   19   20 am   BACKBONE|DICT|INTERRES
    41   19   89 1    
    42   20   21 2    
    43   20   22 1    
    44   22   23 1    
    45   22   24 1    
    46   22   90 1    
    47   23   91 1    
    48   23   92 1    
    49   23   93 1    
    50   24   25 am   BACKBONE|DICT|INTERRES
    51   24   94 1    
    52   25   26 2    
    53   25   27 1    
    54   27   28 1    
    55   27   29 1    
    56   27   95 1    
    57   28   96 1    
    58   28   97 1    
    59   28   98 1    
    60   29   30 am   BACKBONE|DICT|INTERRES
    61   29   99 1    
    62   30   31 2    
    63   30   32 1    
    64   32   33 1    
    65   32   34 1    
    66   32  100 1    
    67   33  101 1    
    68   33  102 1    
    69   33  103 1    
    70   34   35 am   BACKBONE|DICT|INTERRES
    71   34  104 1    
    72   35   36 2    
    73   37   38 2    
    74   37   39 am   BACKBONE|DICT|INTERRES
    75   39   40 1    
    76   39  105 1    
    77   40   41 1    
    78   40   42 1    
    79   40  106 1    
    80   41  107 1    
    81   41  108 1    
    82   41  109 1    
    83   42   43 2    
    84   42   44 am   BACKBONE|DICT|INTERRES
    85   44   45 1    
    86   44  110 1    
    87   45   46 1    
    88   45   47 1    
    89   45  111 1    
    90   46  112 1    
    91   46  113 1    
    92   46  114 1    
    93   47   48 2    
    94   47   49 am   BACKBONE|DICT|INTERRES
    95   49   50 1    
    96   49  115 1    
    97   50   51 1    
    98   50   52 1    
    99   50  116 1    
   100   51  117 1    
   101   51  118 1    
   102   51  119 1    
   103   52   53 2    
   104   52   54 am   BACKBONE|DICT|INTERRES
   105   54   55 1    
   106   54  120 1    
   107   55   56 1    
   108   55   57 1    
   109   55  121 1    
   110   56  122 1    
   111   56  123 1    
   112   56  124 1    
   113   57   58 2    
   114   57   59 am   BACKBONE|DICT|INTERRES
   115   59   60 1    
   116   59  125 1    
   117   60   61 1    
   118   60   62 1    
   119   60  126 1    
   120   61  127 1    
   121   61  128 1    
   122   61  129 1    
   123   62   63 2    
   124   62   64 am   BACKBONE|DICT|INTERRES
   125   64   65 1    
   126   64  130 1    
   127   65   66 1    
   128   65   69 1    
   129   65  131 1    
   130   66   67 am   BACKBONE|DICT|INTERRES
   131   66   68 2    
   132   67  132 1    
   133   67  133 1    
   134   69   70 1    
   135   69  134 1    
   136   69  135 1    
   137   70   71 1    
   138   71  136 1    
   139   71  137 1    
@<TRIPOS>SUBSTRUCTURE
     1 UNK         1 GROUP             0       ****    0 ROOT    
