@<TRIPOS>MOLECULE
3R137
137   139    1
SMALL
USER_CHARGES


@<TRIPOS>ATOM
      1 CA         26.8864   -4.4350    2.3395 C.3       0 UNK        -0.2020 
      2 C          27.3879   -3.8236    1.0398 C.2       0 UNK         0.4855 
      3 O          28.1559   -2.8630    1.0754 O.2       0 UNK        -0.5197 
      4 N          26.9512   -4.3703   -0.1008 N.am      1 UNK        -0.4892 
      5 CA         27.3154   -3.9268   -1.4518 C.3       1 UNK         0.0835 
      6 C6         28.1585   -4.9900   -2.2077 C.3       12 UNK        -0.0855 
      7 S7         29.7893   -5.2575   -1.4271 S.3       12 UNK        -0.2931 
      8 C8         30.9544   -4.6152   -2.6856 C.3       12 UNK         0.0378 
      9 C9         30.9092   -3.1058   -2.9414 C.ar      12 UNK        -0.0802 
     10 C10        31.4338   -2.6141   -4.1412 C.ar      12 UNK        -0.0944 
     11 C11        31.4368   -1.2425   -4.4169 C.ar      12 UNK        -0.0787 
     12 C12        30.8677   -0.3554   -3.5004 C.ar      12 UNK        -0.0862 
     13 C13        30.3254   -0.8296   -2.3038 C.ar      12 UNK        -0.0733 
     14 C14        30.3909   -2.1957   -2.0120 C.ar      12 UNK        -0.0832 
     15 C15        29.6574    0.1205   -1.3216 C.3       12 UNK         0.0240 
     16 S16        27.8502   -0.1068   -1.3382 S.3       12 UNK        -0.2522 
     17 C17        27.2544    1.2913   -2.3447 C.3       12 UNK        -0.0967 
     18 CA         27.5714    1.2139   -3.8616 C.3       5 UNK         0.0660 
     19 N          27.2956   -0.0941   -4.4610 N.am      5 UNK        -0.4015 
     20 C          27.7382   -0.4828   -5.6668 C.2       4 UNK         0.4946 
     21 O          28.4536    0.2072   -6.3931 O.2       4 UNK        -0.5353 
     22 CA         27.2738   -1.8588   -6.1702 C.3       4 UNK         0.0277 
     23 CB         28.2002   -2.9568   -5.6328 C.3       4 UNK        -0.1981 
     24 N          25.8840   -2.1509   -5.8072 N.am      4 UNK        -0.4209 
     25 C          24.8330   -1.4772   -6.3011 C.2       3 UNK         0.4942 
     26 O          24.9320   -0.5824   -7.1381 O.2       3 UNK        -0.5208 
     27 CA         23.4399   -1.8085   -5.7411 C.3       3 UNK         0.0250 
     28 CB         22.7676   -2.9009   -6.5869 C.3       3 UNK        -0.1990 
     29 N          23.4462   -2.2150   -4.3355 N.am      3 UNK        -0.4232 
     30 C          23.9390   -1.4995   -3.3150 C.2       2 UNK         0.4993 
     31 O          24.4448   -0.3819   -3.4401 O.2       2 UNK        -0.5286 
     32 CA         23.9067   -2.1633   -1.9270 C.3       2 UNK         0.0209 
     33 CB         22.8443   -3.2779   -1.7930 C.3       2 UNK        -0.1931 
     34 N          25.2212   -2.6752   -1.5212 N.am      2 UNK        -0.4546 
     35 C          26.0375   -3.5010   -2.1976 C.2       1 UNK         0.5154 
     36 O          25.8068   -3.9257   -3.3321 O.2       1 UNK        -0.5181 
     37 C          26.8133    2.3250   -4.6095 C.2       5 UNK         0.5014 
     38 O          27.3809    3.3911   -4.8495 O.2       5 UNK        -0.5248 
     39 N          25.5479    2.0482   -4.9614 N.am      6 UNK        -0.4434 
     40 CA         24.6794    2.9464   -5.7233 C.3       6 UNK         0.0363 
     41 CB         23.2437    2.3978   -5.7262 C.3       6 UNK        -0.1936 
     42 C          25.1791    3.1800   -7.1591 C.2       6 UNK         0.5081 
     43 O          25.1829    4.3231   -7.6168 O.2       6 UNK        -0.5248 
     44 N          25.5941    2.1022   -7.8399 N.am      7 UNK        -0.4718 
     45 CA         26.1481    2.1472   -9.1938 C.3       7 UNK         0.0273 
     46 CB         26.1684    0.7319   -9.7942 C.3       7 UNK        -0.1935 
     47 C          27.5542    2.7605   -9.2453 C.2       7 UNK         0.5018 
     48 O          27.8585    3.4719  -10.2035 O.2       7 UNK        -0.5186 
     49 N          28.3970    2.4387   -8.2506 N.am      8 UNK        -0.4240 
     50 CA         29.8100    2.8120   -8.0750 C.3       8 UNK         0.0235 
     51 CB         29.9890    4.3384   -7.9735 C.3       8 UNK        -0.2000 
     52 C          30.7624    2.2035   -9.1214 C.2       8 UNK         0.4941 
     53 O          31.8372    1.7293   -8.7534 O.2       8 UNK        -0.5273 
     54 N          30.3400    2.1728  -10.3931 N.am      9 UNK        -0.4262 
     55 CA         31.0431    1.6055  -11.5497 C.3       9 UNK         0.0264 
     56 CB         30.1931    1.8312  -12.8101 C.3       9 UNK        -0.1955 
     57 C          31.4126    0.1167  -11.4125 C.2       9 UNK         0.5031 
     58 O          32.3457   -0.3320  -12.0789 O.2       9 UNK        -0.5390 
     59 N          30.7236   -0.6080  -10.5186 N.am      10 UNK        -0.4204 
     60 CA         31.0456   -1.9724  -10.0897 C.3       10 UNK         0.0237 
     61 CB         29.9770   -2.4416   -9.0873 C.3       10 UNK        -0.1985 
     62 C          32.4571   -2.1195   -9.4832 C.2       10 UNK         0.4970 
     63 O          33.0336   -3.2040   -9.5709 O.2       10 UNK        -0.4914 
     64 N          32.9889   -1.0339   -8.9056 N.am      11 UNK        -0.4285 
     65 CA         34.3686   -0.9244   -8.4132 C.3       11 UNK         0.1007 
     66 C          35.3794   -0.4499   -9.5007 C.2       11 UNK         0.5703 
     67 N          34.9811   -0.2095  -10.7453 N.am      11 UNK        -0.7361 
     68 O          36.5675   -0.3175   -9.2157 O.2       11 UNK        -0.4986 
     69 C69        34.4258   -0.0417   -7.1362 C.3       12 UNK        -0.0947 
     70 S70        33.8731   -0.9345   -5.6482 S.3       12 UNK        -0.2240 
     71 C71        32.0665   -0.7220   -5.6992 C.3       12 UNK         0.0194 
     72 H72        26.3563   -3.6856    2.9269 H         1 UNK         0.0906 
     73 H73        26.2089   -5.2705    2.1645 H         1 UNK         0.0906 
     74 H74        27.7269   -4.7987    2.9301 H         1 UNK         0.0906 
     75 H75        26.3014   -5.1441   -0.0628 H         1 UNK         0.3140 
     76 H76        27.9013   -3.0128   -1.3976 H         1 UNK         0.1085 
     77 H77        28.3145   -4.7081   -3.2480 H         1 UNK         0.0836 
     78 H78        27.6283   -5.9434   -2.2369 H         1 UNK         0.0836 
     79 H79        30.7768   -5.1514   -3.6194 H         1 UNK         0.0731 
     80 H80        31.9668   -4.8740   -2.3730 H         1 UNK         0.0731 
     81 H81        31.8648   -3.2987   -4.8593 H         1 UNK         0.1312 
     82 H82        30.8514    0.7031   -3.7187 H         1 UNK         0.1406 
     83 H83        30.0153   -2.5430   -1.0597 H         1 UNK         0.1631 
     84 H84        29.9121    1.1591   -1.5373 H         1 UNK         0.0717 
     85 H85        30.0273   -0.0847   -0.3159 H         1 UNK         0.0717 
     86 H86        26.1753    1.3412   -2.1837 H         1 UNK         0.0934 
     87 H87        27.6561    2.2151   -1.9236 H         1 UNK         0.0934 
     88 H88        28.6361    1.4124   -3.9900 H         1 UNK         0.0739 
     89 H89        26.6605   -0.6900   -3.9484 H         1 UNK         0.3093 
     90 H90        27.3399   -1.8587   -7.2604 H         1 UNK         0.0818 
     91 H91        29.2060   -2.8456   -6.0384 H         1 UNK         0.0819 
     92 H92        28.2853   -2.9019   -4.5483 H         1 UNK         0.0819 
     93 H93        27.8484   -3.9531   -5.9006 H         1 UNK         0.0819 
     94 H94        25.7268   -2.8591   -5.0960 H         1 UNK         0.3041 
     95 H95        22.8355   -0.9025   -5.8117 H         1 UNK         0.0784 
     96 H96        22.7302   -2.6118   -7.6383 H         1 UNK         0.0793 
     97 H97        23.3072   -3.8471   -6.5277 H         1 UNK         0.0793 
     98 H98        21.7410   -3.0777   -6.2653 H         1 UNK         0.0793 
     99 H99        23.0934   -3.1390   -4.1320 H         1 UNK         0.3024 
    100 H100       23.6450   -1.3701   -1.2243 H         1 UNK         0.1171 
    101 H101       22.7592   -3.6088   -0.7578 H         1 UNK         0.0786 
    102 H102       21.8573   -2.9229   -2.0937 H         1 UNK         0.0786 
    103 H103       23.0826   -4.1556   -2.3950 H         1 UNK         0.0786 
    104 H104       25.5418   -2.3634   -0.6144 H         1 UNK         0.2977 
    105 H105       25.1522    1.1593   -4.6719 H         1 UNK         0.3127 
    106 H106       24.6726    3.9116   -5.2122 H         1 UNK         0.0770 
    107 H107       23.1772    1.4432   -6.2479 H         1 UNK         0.0814 
    108 H108       22.5654    3.0892   -6.2278 H         1 UNK         0.0814 
    109 H109       22.8697    2.2535   -4.7123 H         1 UNK         0.0814 
    110 H110       25.4871    1.1797   -7.4222 H         1 UNK         0.2983 
    111 H111       25.4938    2.7688   -9.8091 H         1 UNK         0.0947 
    112 H112       26.5646    0.7419  -10.8106 H         1 UNK         0.0806 
    113 H113       25.1647    0.3091   -9.8424 H         1 UNK         0.0806 
    114 H114       26.7874    0.0521   -9.2069 H         1 UNK         0.0806 
    115 H115       28.0645    1.7793   -7.5520 H         1 UNK         0.3000 
    116 H116       30.0999    2.3864   -7.1126 H         1 UNK         0.0850 
    117 H117       31.0227    4.5921   -7.7348 H         1 UNK         0.0810 
    118 H118       29.3617    4.7559   -7.1855 H         1 UNK         0.0810 
    119 H119       29.7388    4.8449   -8.9059 H         1 UNK         0.0810 
    120 H120       29.4452    2.6222  -10.5778 H         1 UNK         0.3040 
    121 H121       31.9785    2.1575  -11.6604 H         1 UNK         0.0766 
    122 H122       30.0081    2.8922  -12.9795 H         1 UNK         0.0812 
    123 H123       29.2272    1.3294  -12.7400 H         1 UNK         0.0812 
    124 H124       30.6981    1.4465  -13.6975 H         1 UNK         0.0812 
    125 H125       29.9761   -0.1446  -10.0240 H         1 UNK         0.3205 
    126 H126       31.0018   -2.6153  -10.9712 H         1 UNK         0.0754 
    127 H127       30.1911   -3.4486   -8.7261 H         1 UNK         0.0769 
    128 H128       28.9877   -2.4676   -9.5449 H         1 UNK         0.0769 
    129 H129       29.9251   -1.7858   -8.2173 H         1 UNK         0.0769 
    130 H130       32.4614   -0.1664   -8.8965 H         1 UNK         0.2981 
    131 H131       34.7180   -1.9211   -8.1376 H         1 UNK         0.0541 
    132 H132       35.6644    0.0865  -11.4237 H         1 UNK         0.3459 
    133 H133       34.0169   -0.3365  -11.0324 H         1 UNK         0.3459 
    134 H134       35.4478    0.2777   -6.9253 H         1 UNK         0.0612 
    135 H135       33.8495    0.8762   -7.2573 H         1 UNK         0.0612 
    136 H136       31.6530   -1.2693   -6.5454 H         1 UNK         0.0624 
    137 H137       31.8240    0.3304   -5.8560 H         1 UNK         0.0624 
@<TRIPOS>BOND
     1    1    2 1    
     2    1   72 1    
     3    1   73 1    
     4    1   74 1    
     5    2    3 2    
     6    2    4 am   BACKBONE|DICT|INTERRES
     7    4    5 1    
     8    4   75 1    
     9    5    6 1    
    10    5   35 1    
    11    5   76 1    
    12    6    7 1    
    13    6   77 1    
    14    6   78 1    
    15    7    8 1    
    16    8    9 1    
    17    8   79 1    
    18    8   80 1    
    19    9   10 ar   
    20    9   14 ar   
    21   10   11 ar   
    22   10   81 1    
    23   11   12 ar   
    24   11   71 1    
    25   12   13 ar   
    26   12   82 1    
    27   13   14 ar   
    28   13   15 1    
    29   14   83 1    
    30   15   16 1    
    31   15   84 1    
    32   15   85 1    
    33   16   17 1    
    34   17   18 1    
    35   17   86 1    
    36   17   87 1    
    37   18   19 1    
    38   18   37 1    
    39   18   88 1    
    40   19   20 am   BACKBONE|DICT|INTERRES
    41   19   89 1    
    42   20   21 2    
    43   20   22 1    
    44   22   23 1    
    45   22   24 1    
    46   22   90 1    
    47   23   91 1    
    48   23   92 1    
    49   23   93 1    
    50   24   25 am   BACKBONE|DICT|INTERRES
    51   24   94 1    
    52   25   26 2    
    53   25   27 1    
    54   27   28 1    
    55   27   29 1    
    56   27   95 1    
    57   28   96 1    
    58   28   97 1    
    59   28   98 1    
    60   29   30 am   BACKBONE|DICT|INTERRES
    61   29   99 1    
    62   30   31 2    
    63   30   32 1    
    64   32   33 1    
    65   32   34 1    
    66   32  100 1    
    67   33  101 1    
    68   33  102 1    
    69   33  103 1    
    70   34   35 am   BACKBONE|DICT|INTERRES
    71   34  104 1    
    72   35   36 2    
    73   37   38 2    
    74   37   39 am   BACKBONE|DICT|INTERRES
    75   39   40 1    
    76   39  105 1    
    77   40   41 1    
    78   40   42 1    
    79   40  106 1    
    80   41  107 1    
    81   41  108 1    
    82   41  109 1    
    83   42   43 2    
    84   42   44 am   BACKBONE|DICT|INTERRES
    85   44   45 1    
    86   44  110 1    
    87   45   46 1    
    88   45   47 1    
    89   45  111 1    
    90   46  112 1    
    91   46  113 1    
    92   46  114 1    
    93   47   48 2    
    94   47   49 am   BACKBONE|DICT|INTERRES
    95   49   50 1    
    96   49  115 1    
    97   50   51 1    
    98   50   52 1    
    99   50  116 1    
   100   51  117 1    
   101   51  118 1    
   102   51  119 1    
   103   52   53 2    
   104   52   54 am   BACKBONE|DICT|INTERRES
   105   54   55 1    
   106   54  120 1    
   107   55   56 1    
   108   55   57 1    
   109   55  121 1    
   110   56  122 1    
   111   56  123 1    
   112   56  124 1    
   113   57   58 2    
   114   57   59 am   BACKBONE|DICT|INTERRES
   115   59   60 1    
   116   59  125 1    
   117   60   61 1    
   118   60   62 1    
   119   60  126 1    
   120   61  127 1    
   121   61  128 1    
   122   61  129 1    
   123   62   63 2    
   124   62   64 am   BACKBONE|DICT|INTERRES
   125   64   65 1    
   126   64  130 1    
   127   65   66 1    
   128   65   69 1    
   129   65  131 1    
   130   66   67 am   BACKBONE|DICT|INTERRES
   131   66   68 2    
   132   67  132 1    
   133   67  133 1    
   134   69   70 1    
   135   69  134 1    
   136   69  135 1    
   137   70   71 1    
   138   71  136 1    
   139   71  137 1    
@<TRIPOS>SUBSTRUCTURE
     1 UNK         1 GROUP             0       ****    0 ROOT    
