@<TRIPOS>MOLECULE
3R137
137   139    1
SMALL
USER_CHARGES


@<TRIPOS>ATOM
      1 CA         25.5994   -6.0947   -2.5126 C.3       0 UNK        -0.2020 
      2 C          26.4261   -4.8865   -2.9242 C.2       0 UNK         0.4855 
      3 O          26.1718   -4.3102   -3.9814 O.2       0 UNK        -0.5197 
      4 N          27.3992   -4.4934   -2.0883 N.am      1 UNK        -0.4892 
      5 CA         28.3348   -3.3766   -2.2934 C.3       1 UNK         0.0835 
      6 C6         29.4398   -3.7009   -3.3396 C.3       12 UNK        -0.0855 
      7 S7         30.7515   -4.7745   -2.6521 S.3       12 UNK        -0.2931 
      8 C8         31.6306   -3.6904   -1.4654 C.3       12 UNK         0.0378 
      9 C9         32.2749   -2.4811   -2.1297 C.ar      12 UNK        -0.0802 
     10 C10        33.6143   -2.5187   -2.5266 C.ar      12 UNK        -0.0944 
     11 C11        34.1938   -1.4213   -3.1727 C.ar      12 UNK        -0.0787 
     12 C12        33.4200   -0.2837   -3.4321 C.ar      12 UNK        -0.0862 
     13 C13        32.0804   -0.2355   -3.0336 C.ar      12 UNK        -0.0733 
     14 C14        31.5284   -1.3211   -2.3520 C.ar      12 UNK        -0.0832 
     15 C15        31.1977    0.9539   -3.3779 C.3       12 UNK         0.0240 
     16 S16        30.2893    0.6187   -4.9173 S.3       12 UNK        -0.2522 
     17 C17        28.8319    1.7020   -4.7501 C.3       12 UNK        -0.0967 
     18 CA         27.8512    1.4872   -5.9287 C.3       5 UNK         0.0660 
     19 N          27.2704    0.1379   -5.9486 N.am      5 UNK        -0.4015 
     20 C          26.5992   -0.3844   -6.9865 C.2       4 UNK         0.4946 
     21 O          26.2637    0.2596   -7.9807 O.2       4 UNK        -0.5353 
     22 CA         26.2004   -1.8640   -6.8890 C.3       4 UNK         0.0277 
     23 CB         27.4371   -2.7778   -6.8322 C.3       4 UNK        -0.1981 
     24 N          25.3339   -2.1103   -5.7385 N.am      4 UNK        -0.4209 
     25 C          24.0833   -1.6398   -5.6196 C.2       3 UNK         0.4942 
     26 O          23.4797   -1.0481   -6.5150 O.2       3 UNK        -0.5208 
     27 CA         23.3998   -1.8246   -4.2547 C.3       3 UNK         0.0250 
     28 CB         22.7486   -3.2129   -4.1462 C.3       3 UNK        -0.1990 
     29 N          24.3172   -1.6142   -3.1321 N.am      3 UNK        -0.4232 
     30 C          24.9240   -0.4503   -2.8552 C.2       2 UNK         0.4993 
     31 O          24.7604    0.5825   -3.5017 O.2       2 UNK        -0.5286 
     32 CA         25.9172   -0.4472   -1.6843 C.3       2 UNK         0.0209 
     33 CB         25.1856   -0.2311   -0.3501 C.3       2 UNK        -0.1931 
     34 N          26.7212   -1.6699   -1.6166 N.am      2 UNK        -0.4546 
     35 C          27.6005   -2.0445   -2.5570 C.2       1 UNK         0.5154 
     36 O          27.8097   -1.3983   -3.5847 O.2       1 UNK        -0.5181 
     37 C          26.8191    2.6281   -6.0438 C.2       5 UNK         0.5014 
     38 O          27.1817    3.7008   -6.5297 O.2       5 UNK        -0.5248 
     39 N          25.5579    2.3890   -5.6530 N.am      6 UNK        -0.4434 
     40 CA         24.4348    3.2988   -5.8998 C.3       6 UNK         0.0363 
     41 CB         23.2013    2.8249   -5.1149 C.3       6 UNK        -0.1936 
     42 C          24.0838    3.4576   -7.3924 C.2       6 UNK         0.5081 
     43 O          23.5780    4.5146   -7.7719 O.2       6 UNK        -0.5248 
     44 N          24.3456    2.4265   -8.2086 N.am      7 UNK        -0.4718 
     45 CA         24.1588    2.4582   -9.6592 C.3       7 UNK         0.0273 
     46 CB         23.7575    1.0633  -10.1692 C.3       7 UNK        -0.1935 
     47 C          25.4294    2.9658  -10.3552 C.2       7 UNK         0.5018 
     48 O          25.3487    3.9158  -11.1353 O.2       7 UNK        -0.5186 
     49 N          26.5765    2.3467  -10.0486 N.am      8 UNK        -0.4240 
     50 CA         27.8970    2.7181  -10.5552 C.3       8 UNK         0.0235 
     51 CB         28.0656    2.2804  -12.0233 C.3       8 UNK        -0.2000 
     52 C          28.9558    2.0575   -9.6700 C.2       8 UNK         0.4941 
     53 O          28.8256    0.8707   -9.3704 O.2       8 UNK        -0.5273 
     54 N          29.9792    2.8246   -9.2707 N.am      9 UNK        -0.4262 
     55 CA         31.0601    2.3906   -8.3805 C.3       9 UNK         0.0264 
     56 CB         31.9806    3.5841   -8.0738 C.3       9 UNK        -0.1955 
     57 C          31.8542    1.2031   -8.9530 C.2       9 UNK         0.5031 
     58 O          32.5992    1.3807   -9.9199 O.2       9 UNK        -0.5390 
     59 N          31.6735    0.0246   -8.3500 N.am      10 UNK        -0.4204 
     60 CA         32.3299   -1.2251   -8.7110 C.3       10 UNK         0.0237 
     61 CB         31.5965   -1.8956   -9.8871 C.3       10 UNK        -0.1985 
     62 C          32.3292   -2.1224   -7.4721 C.2       10 UNK         0.4970 
     63 O          31.3017   -2.2214   -6.7994 O.2       10 UNK        -0.4914 
     64 N          33.4748   -2.7529   -7.2013 N.am      11 UNK        -0.4285 
     65 CA         33.7178   -3.5667   -5.9990 C.3       11 UNK         0.1007 
     66 C          33.2255   -5.0403   -6.1034 C.2       11 UNK         0.5703 
     67 N          32.6162   -5.4644   -7.2047 N.am      11 UNK        -0.7361 
     68 O          33.4039   -5.8187   -5.1700 O.2       11 UNK        -0.4986 
     69 C69        35.2054   -3.4900   -5.5539 C.3       12 UNK        -0.0947 
     70 S70        35.8254   -1.7781   -5.3896 S.3       12 UNK        -0.2240 
     71 C71        35.6520   -1.4729   -3.6040 C.3       12 UNK         0.0194 
     72 H72        24.5503   -5.8163   -2.4168 H         1 UNK         0.0906 
     73 H73        25.6766   -6.8745   -3.2697 H         1 UNK         0.0906 
     74 H74        25.9290   -6.5119   -1.5613 H         1 UNK         0.0906 
     75 H75        27.5447   -5.0179   -1.2362 H         1 UNK         0.3140 
     76 H76        28.8174   -3.2180   -1.3300 H         1 UNK         0.1085 
     77 H77        29.9088   -2.8093   -3.7548 H         1 UNK         0.0836 
     78 H78        29.0037   -4.2030   -4.2044 H         1 UNK         0.0836 
     79 H79        32.3980   -4.2852   -0.9676 H         1 UNK         0.0731 
     80 H80        30.9565   -3.3672   -0.6724 H         1 UNK         0.0731 
     81 H81        34.2008   -3.4097   -2.3484 H         1 UNK         0.1312 
     82 H82        33.8552    0.5523   -3.9625 H         1 UNK         0.1406 
     83 H83        30.4938   -1.2779   -2.0445 H         1 UNK         0.1631 
     84 H84        31.7927    1.8609   -3.4941 H         1 UNK         0.0717 
     85 H85        30.4952    1.1404   -2.5641 H         1 UNK         0.0717 
     86 H86        28.3363    1.5052   -3.7976 H         1 UNK         0.0934 
     87 H87        29.1852    2.7348   -4.7155 H         1 UNK         0.0934 
     88 H88        28.4381    1.5607   -6.8428 H         1 UNK         0.0739 
     89 H89        27.4886   -0.4557   -5.1492 H         1 UNK         0.3093 
     90 H90        25.6400   -2.1165   -7.7917 H         1 UNK         0.0818 
     91 H91        28.0846   -2.6106   -7.6942 H         1 UNK         0.0819 
     92 H92        28.0385   -2.6018   -5.9403 H         1 UNK         0.0819 
     93 H93        27.1522   -3.8299   -6.8364 H         1 UNK         0.0819 
     94 H94        25.7319   -2.6450   -4.9709 H         1 UNK         0.3041 
     95 H95        22.6111   -1.0727   -4.1789 H         1 UNK         0.0784 
     96 H96        22.0309   -3.3682   -4.9530 H         1 UNK         0.0793 
     97 H97        23.4853   -4.0141   -4.2097 H         1 UNK         0.0793 
     98 H98        22.2076   -3.3263   -3.2067 H         1 UNK         0.0793 
     99 H99        24.5453   -2.4201   -2.5694 H         1 UNK         0.3024 
    100 H100       26.5986    0.3924   -1.8416 H         1 UNK         0.1171 
    101 H101       25.8892   -0.1352    0.4772 H         1 UNK         0.0786 
    102 H102       24.5924    0.6843   -0.3756 H         1 UNK         0.0786 
    103 H103       24.5065   -1.0531   -0.1209 H         1 UNK         0.0786 
    104 H104       26.5894   -2.2627   -0.8094 H         1 UNK         0.2977 
    105 H105       25.3408    1.5193   -5.1738 H         1 UNK         0.3127 
    106 H106       24.7158    4.2854   -5.5255 H         1 UNK         0.0770 
    107 H107       22.9141    1.8096   -5.3925 H         1 UNK         0.0814 
    108 H108       22.3431    3.4717   -5.3026 H         1 UNK         0.0814 
    109 H109       23.3859    2.8403   -4.0408 H         1 UNK         0.0814 
    110 H110       24.8222    1.6092   -7.8376 H         1 UNK         0.2983 
    111 H111       23.3453    3.1440   -9.9071 H         1 UNK         0.0947 
    112 H112       24.5249    0.3148   -9.9711 H         1 UNK         0.0806 
    113 H113       23.5884    1.0781  -11.2466 H         1 UNK         0.0806 
    114 H114       22.8341    0.7230   -9.7001 H         1 UNK         0.0806 
    115 H115       26.5688    1.5746   -9.3816 H         1 UNK         0.3000 
    116 H116       28.0024    3.8031  -10.4871 H         1 UNK         0.0850 
    117 H117       29.0656    2.5176  -12.3888 H         1 UNK         0.0810 
    118 H118       27.3555    2.7849  -12.6783 H         1 UNK         0.0810 
    119 H119       27.9221    1.2052  -12.1384 H         1 UNK         0.0810 
    120 H120       30.0257    3.7796   -9.5955 H         1 UNK         0.3040 
    121 H121       30.6064    2.0820   -7.4391 H         1 UNK         0.0766 
    122 H122       31.4362    4.3897   -7.5808 H         1 UNK         0.0812 
    123 H123       32.4350    3.9886   -8.9793 H         1 UNK         0.0812 
    124 H124       32.7915    3.2877   -7.4070 H         1 UNK         0.0812 
    125 H125       31.0427   -0.0492   -7.5595 H         1 UNK         0.3205 
    126 H126       33.3621   -1.0146   -9.0001 H         1 UNK         0.0754 
    127 H127       32.0651   -2.8438  -10.1531 H         1 UNK         0.0769 
    128 H128       31.6123   -1.2648  -10.7761 H         1 UNK         0.0769 
    129 H129       30.5527   -2.0997   -9.6435 H         1 UNK         0.0769 
    130 H130       34.2665   -2.6322   -7.8153 H         1 UNK         0.2981 
    131 H131       33.1215   -3.1364   -5.1935 H         1 UNK         0.0541 
    132 H132       32.3033   -6.4207   -7.2581 H         1 UNK         0.3459 
    133 H133       32.4552   -4.8345   -7.9732 H         1 UNK         0.3459 
    134 H134       35.3525   -4.0101   -4.6058 H         1 UNK         0.0612 
    135 H135       35.8399   -4.0023   -6.2791 H         1 UNK         0.0612 
    136 H136       36.1959   -2.2397   -3.0500 H         1 UNK         0.0624 
    137 H137       36.1332   -0.5241   -3.3627 H         1 UNK         0.0624 
@<TRIPOS>BOND
     1    1    2 1    
     2    1   72 1    
     3    1   73 1    
     4    1   74 1    
     5    2    3 2    
     6    2    4 am   BACKBONE|DICT|INTERRES
     7    4    5 1    
     8    4   75 1    
     9    5    6 1    
    10    5   35 1    
    11    5   76 1    
    12    6    7 1    
    13    6   77 1    
    14    6   78 1    
    15    7    8 1    
    16    8    9 1    
    17    8   79 1    
    18    8   80 1    
    19    9   10 ar   
    20    9   14 ar   
    21   10   11 ar   
    22   10   81 1    
    23   11   12 ar   
    24   11   71 1    
    25   12   13 ar   
    26   12   82 1    
    27   13   14 ar   
    28   13   15 1    
    29   14   83 1    
    30   15   16 1    
    31   15   84 1    
    32   15   85 1    
    33   16   17 1    
    34   17   18 1    
    35   17   86 1    
    36   17   87 1    
    37   18   19 1    
    38   18   37 1    
    39   18   88 1    
    40   19   20 am   BACKBONE|DICT|INTERRES
    41   19   89 1    
    42   20   21 2    
    43   20   22 1    
    44   22   23 1    
    45   22   24 1    
    46   22   90 1    
    47   23   91 1    
    48   23   92 1    
    49   23   93 1    
    50   24   25 am   BACKBONE|DICT|INTERRES
    51   24   94 1    
    52   25   26 2    
    53   25   27 1    
    54   27   28 1    
    55   27   29 1    
    56   27   95 1    
    57   28   96 1    
    58   28   97 1    
    59   28   98 1    
    60   29   30 am   BACKBONE|DICT|INTERRES
    61   29   99 1    
    62   30   31 2    
    63   30   32 1    
    64   32   33 1    
    65   32   34 1    
    66   32  100 1    
    67   33  101 1    
    68   33  102 1    
    69   33  103 1    
    70   34   35 am   BACKBONE|DICT|INTERRES
    71   34  104 1    
    72   35   36 2    
    73   37   38 2    
    74   37   39 am   BACKBONE|DICT|INTERRES
    75   39   40 1    
    76   39  105 1    
    77   40   41 1    
    78   40   42 1    
    79   40  106 1    
    80   41  107 1    
    81   41  108 1    
    82   41  109 1    
    83   42   43 2    
    84   42   44 am   BACKBONE|DICT|INTERRES
    85   44   45 1    
    86   44  110 1    
    87   45   46 1    
    88   45   47 1    
    89   45  111 1    
    90   46  112 1    
    91   46  113 1    
    92   46  114 1    
    93   47   48 2    
    94   47   49 am   BACKBONE|DICT|INTERRES
    95   49   50 1    
    96   49  115 1    
    97   50   51 1    
    98   50   52 1    
    99   50  116 1    
   100   51  117 1    
   101   51  118 1    
   102   51  119 1    
   103   52   53 2    
   104   52   54 am   BACKBONE|DICT|INTERRES
   105   54   55 1    
   106   54  120 1    
   107   55   56 1    
   108   55   57 1    
   109   55  121 1    
   110   56  122 1    
   111   56  123 1    
   112   56  124 1    
   113   57   58 2    
   114   57   59 am   BACKBONE|DICT|INTERRES
   115   59   60 1    
   116   59  125 1    
   117   60   61 1    
   118   60   62 1    
   119   60  126 1    
   120   61  127 1    
   121   61  128 1    
   122   61  129 1    
   123   62   63 2    
   124   62   64 am   BACKBONE|DICT|INTERRES
   125   64   65 1    
   126   64  130 1    
   127   65   66 1    
   128   65   69 1    
   129   65  131 1    
   130   66   67 am   BACKBONE|DICT|INTERRES
   131   66   68 2    
   132   67  132 1    
   133   67  133 1    
   134   69   70 1    
   135   69  134 1    
   136   69  135 1    
   137   70   71 1    
   138   71  136 1    
   139   71  137 1    
@<TRIPOS>SUBSTRUCTURE
     1 UNK         1 GROUP             0       ****    0 ROOT    
