@<TRIPOS>MOLECULE
3R137
137   139    1
SMALL
USER_CHARGES


@<TRIPOS>ATOM
      1 CA         27.7500   -3.8063    2.2340 C.3       0 UNK        -0.2020 
      2 C          27.4595   -3.0401    0.9522 C.2       0 UNK         0.4855 
      3 O          27.0973   -3.6532   -0.0517 O.2       0 UNK        -0.5197 
      4 N          27.6299   -1.7108    0.9832 N.am      1 UNK        -0.4892 
      5 CA         27.3803   -0.7687   -0.1180 C.3       1 UNK         0.0835 
      6 C6         28.3495   -0.9443   -1.3218 C.3       12 UNK        -0.0855 
      7 S7         30.1049   -0.7205   -0.8605 S.3       12 UNK        -0.2931 
      8 C8         30.7517   -2.4266   -0.8472 C.3       12 UNK         0.0378 
      9 C9         30.7818   -3.0377   -2.2401 C.ar      12 UNK        -0.0802 
     10 C10        31.8030   -2.7058   -3.1354 C.ar      12 UNK        -0.0944 
     11 C11        31.8086   -3.2240   -4.4356 C.ar      12 UNK        -0.0787 
     12 C12        30.7868   -4.0967   -4.8272 C.ar      12 UNK        -0.0862 
     13 C13        29.7649   -4.4448   -3.9351 C.ar      12 UNK        -0.0733 
     14 C14        29.7795   -3.9254   -2.6387 C.ar      12 UNK        -0.0832 
     15 C15        28.6181   -5.3466   -4.3810 C.3       12 UNK         0.0240 
     16 S16        26.9986   -4.4985   -4.3224 S.3       12 UNK        -0.2522 
     17 C17        27.3021   -3.0515   -5.3858 C.3       12 UNK        -0.0967 
     18 CA         26.5638   -3.1400   -6.7450 C.3       5 UNK         0.0660 
     19 N          25.1459   -2.8132   -6.6016 N.am      5 UNK        -0.4015 
     20 C          24.1812   -3.2236   -7.4355 C.2       4 UNK         0.4946 
     21 O          24.3817   -3.9720   -8.3939 O.2       4 UNK        -0.5353 
     22 CA         22.7423   -2.7492   -7.1530 C.3       4 UNK         0.0277 
     23 CB         21.9235   -3.8819   -6.5110 C.3       4 UNK        -0.1981 
     24 N          22.6772   -1.5691   -6.2882 N.am      4 UNK        -0.4209 
     25 C          22.9471   -0.3156   -6.6798 C.2       3 UNK         0.4942 
     26 O          23.1968   -0.0032   -7.8437 O.2       3 UNK        -0.5208 
     27 CA         22.9372    0.7775   -5.5926 C.3       3 UNK         0.0250 
     28 CB         21.6417    1.6018   -5.6706 C.3       3 UNK        -0.1990 
     29 N          23.1012    0.2640   -4.2257 N.am      3 UNK        -0.4232 
     30 C          24.2256   -0.2919   -3.7557 C.2       2 UNK         0.4993 
     31 O          25.2465   -0.4462   -4.4293 O.2       2 UNK        -0.5286 
     32 CA         24.1861   -0.8169   -2.3181 C.3       2 UNK         0.0209 
     33 CB         23.5888   -2.2362   -2.2763 C.3       2 UNK        -0.1931 
     34 N          25.5480   -0.8412   -1.7909 N.am      2 UNK        -0.4546 
     35 C          25.8784   -0.7589   -0.4962 C.2       1 UNK         0.5154 
     36 O          25.0407   -0.6564    0.4042 O.2       1 UNK        -0.5181 
     37 C          27.2403   -2.1983   -7.7564 C.2       5 UNK         0.5014 
     38 O          26.7616   -1.0892   -8.0080 O.2       5 UNK        -0.5248 
     39 N          28.4302   -2.6174   -8.2149 N.am      6 UNK        -0.4434 
     40 CA         29.3855   -1.8040   -8.9778 C.3       6 UNK         0.0363 
     41 CB         30.5828   -2.6769   -9.3851 C.3       6 UNK        -0.1936 
     42 C          29.8727   -0.5464   -8.2309 C.2       6 UNK         0.5081 
     43 O          30.3931    0.3665   -8.8694 O.2       6 UNK        -0.5248 
     44 N          29.6586   -0.4874   -6.9082 N.am      7 UNK        -0.4718 
     45 CA         29.8509    0.6764   -6.0377 C.3       7 UNK         0.0273 
     46 CB         29.4254    0.3024   -4.6105 C.3       7 UNK        -0.1935 
     47 C          29.1087    1.9421   -6.5054 C.2       7 UNK         0.5018 
     48 O          29.5949    3.0443   -6.2520 O.2       7 UNK        -0.5186 
     49 N          28.0030    1.7739   -7.2487 N.am      8 UNK        -0.4240 
     50 CA         27.3003    2.8481   -7.9599 C.3       8 UNK         0.0235 
     51 CB         26.0154    2.2790   -8.5813 C.3       8 UNK        -0.2000 
     52 C          28.1567    3.5507   -9.0364 C.2       8 UNK         0.4941 
     53 O          27.8819    4.7071   -9.3573 O.2       8 UNK        -0.5273 
     54 N          29.1864    2.8612   -9.5473 N.am      9 UNK        -0.4262 
     55 CA         30.2137    3.3777  -10.4522 C.3       9 UNK         0.0264 
     56 CB         30.1819    2.5563  -11.7546 C.3       9 UNK        -0.1955 
     57 C          31.6002    3.3352   -9.7764 C.2       9 UNK         0.5031 
     58 O          32.6108    3.1845  -10.4668 O.2       9 UNK        -0.5390 
     59 N          31.6288    3.4387   -8.4366 N.am      10 UNK        -0.4204 
     60 CA         32.8089    3.4321   -7.5604 C.3       10 UNK         0.0237 
     61 CB         33.6345    4.7210   -7.7629 C.3       10 UNK        -0.1985 
     62 C          33.6723    2.1555   -7.6554 C.2       10 UNK         0.4970 
     63 O          34.8712    2.2164   -7.3769 O.2       10 UNK        -0.4914 
     64 N          33.0560    1.0300   -8.0430 N.am      11 UNK        -0.4285 
     65 CA         33.6896   -0.2806   -8.2682 C.3       11 UNK         0.1007 
     66 C          34.6614   -0.3135   -9.4873 C.2       11 UNK         0.5703 
     67 N          34.6011    0.6440  -10.4077 N.am      11 UNK        -0.7361 
     68 O          35.4598   -1.2374   -9.6253 O.2       11 UNK        -0.4986 
     69 C69        34.2892   -0.9127   -6.9761 C.3       12 UNK        -0.0947 
     70 S70        33.0633   -1.0453   -5.6289 S.3       12 UNK        -0.2240 
     71 C71        32.9177   -2.8482   -5.4142 C.3       12 UNK         0.0194 
     72 H72        26.8545   -4.3293    2.5687 H         1 UNK         0.0906 
     73 H73        28.0797   -3.1488    3.0383 H         1 UNK         0.0906 
     74 H74        28.5312   -4.5457    2.0593 H         1 UNK         0.0906 
     75 H75        27.9091   -1.2766    1.8520 H         1 UNK         0.3140 
     76 H76        27.5660    0.2239    0.2959 H         1 UNK         0.1085 
     77 H77        28.1401   -0.1900   -2.0810 H         1 UNK         0.0836 
     78 H78        28.1993   -1.9087   -1.8051 H         1 UNK         0.0836 
     79 H79        30.1585   -3.0396   -0.1684 H         1 UNK         0.0731 
     80 H80        31.7624   -2.4146   -0.4368 H         1 UNK         0.0731 
     81 H81        32.5822   -2.0219   -2.8274 H         1 UNK         0.1312 
     82 H82        30.7809   -4.4974   -5.8315 H         1 UNK         0.1406 
     83 H83        28.9833   -4.1846   -1.9528 H         1 UNK         0.1631 
     84 H84        28.5812   -6.2242   -3.7342 H         1 UNK         0.0717 
     85 H85        28.7854   -5.7174   -5.3934 H         1 UNK         0.0717 
     86 H86        27.0122   -2.1572   -4.8364 H         1 UNK         0.0934 
     87 H87        28.3761   -2.9467   -5.5258 H         1 UNK         0.0934 
     88 H88        26.6553   -4.1576   -7.1322 H         1 UNK         0.0739 
     89 H89        24.9224   -2.1340   -5.8861 H         1 UNK         0.3093 
     90 H90        22.2867   -2.5000   -8.1139 H         1 UNK         0.0818 
     91 H91        22.3296   -4.1763   -5.5422 H         1 UNK         0.0819 
     92 H92        20.8838   -3.5881   -6.3658 H         1 UNK         0.0819 
     93 H93        21.9210   -4.7694   -7.1456 H         1 UNK         0.0819 
     94 H94        22.4511   -1.7270   -5.3176 H         1 UNK         0.3041 
     95 H95        23.7777    1.4431   -5.8014 H         1 UNK         0.0784 
     96 H96        21.5079    2.0252   -6.6673 H         1 UNK         0.0793 
     97 H97        20.7619    0.9944   -5.4544 H         1 UNK         0.0793 
     98 H98        21.6576    2.4350   -4.9677 H         1 UNK         0.0793 
     99 H99        22.3005    0.3457   -3.6146 H         1 UNK         0.3024 
    100 H100       23.5757   -0.1389   -1.7167 H         1 UNK         0.1171 
    101 H101       24.1758   -2.9365   -2.8730 H         1 UNK         0.0786 
    102 H102       22.5685   -2.2490   -2.6612 H         1 UNK         0.0786 
    103 H103       23.5520   -2.6206   -1.2567 H         1 UNK         0.0786 
    104 H104       26.2651   -0.8828   -2.5034 H         1 UNK         0.2977 
    105 H105       28.7396   -3.5475   -7.9708 H         1 UNK         0.3127 
    106 H106       28.8801   -1.4636   -9.8840 H         1 UNK         0.0770 
    107 H107       31.1432   -3.0271   -8.5172 H         1 UNK         0.0814 
    108 H108       31.2740   -2.1176  -10.0173 H         1 UNK         0.0814 
    109 H109       30.2645   -3.5490   -9.9564 H         1 UNK         0.0814 
    110 H110       29.2566   -1.3001   -6.4702 H         1 UNK         0.2983 
    111 H111       30.9156    0.9132   -6.0305 H         1 UNK         0.0947 
    112 H112       28.3652    0.0511   -4.5604 H         1 UNK         0.0806 
    113 H113       29.5987    1.1305   -3.9217 H         1 UNK         0.0806 
    114 H114       29.9933   -0.5496   -4.2351 H         1 UNK         0.0806 
    115 H115       27.6672    0.8304   -7.4113 H         1 UNK         0.3000 
    116 H116       27.0210    3.6039   -7.2230 H         1 UNK         0.0850 
    117 H117       25.4464    3.0578   -9.0907 H         1 UNK         0.0810 
    118 H118       25.3646    1.8472   -7.8208 H         1 UNK         0.0810 
    119 H119       26.2323    1.4992   -9.3127 H         1 UNK         0.0810 
    120 H120       29.3582    1.9148   -9.2158 H         1 UNK         0.3040 
    121 H121       30.0157    4.4225  -10.6990 H         1 UNK         0.0766 
    122 H122       29.1958    2.5870  -12.2180 H         1 UNK         0.0812 
    123 H123       30.4360    1.5108  -11.5744 H         1 UNK         0.0812 
    124 H124       30.8932    2.9460  -12.4840 H         1 UNK         0.0812 
    125 H125       30.7431    3.5219   -7.9485 H         1 UNK         0.3205 
    126 H126       32.4223    3.4484   -6.5403 H         1 UNK         0.0754 
    127 H127       34.4280    4.8023   -7.0190 H         1 UNK         0.0769 
    128 H128       33.0117    5.6102   -7.6655 H         1 UNK         0.0769 
    129 H129       34.1059    4.7475   -8.7459 H         1 UNK         0.0769 
    130 H130       32.0729    1.0667   -8.2942 H         1 UNK         0.2981 
    131 H131       32.8744   -0.9334   -8.5755 H         1 UNK         0.0541 
    132 H132       33.9456    1.4104  -10.3180 H         1 UNK         0.3459 
    133 H133       35.2251    0.6069  -11.1976 H         1 UNK         0.3459 
    134 H134       34.6850   -1.9077   -7.1860 H         1 UNK         0.0612 
    135 H135       35.1343   -0.3255   -6.6151 H         1 UNK         0.0612 
    136 H136       33.8664   -3.2439   -5.0495 H         1 UNK         0.0624 
    137 H137       32.7400   -3.3038   -6.3895 H         1 UNK         0.0624 
@<TRIPOS>BOND
     1    1    2 1    
     2    1   72 1    
     3    1   73 1    
     4    1   74 1    
     5    2    3 2    
     6    2    4 am   BACKBONE|DICT|INTERRES
     7    4    5 1    
     8    4   75 1    
     9    5    6 1    
    10    5   35 1    
    11    5   76 1    
    12    6    7 1    
    13    6   77 1    
    14    6   78 1    
    15    7    8 1    
    16    8    9 1    
    17    8   79 1    
    18    8   80 1    
    19    9   10 ar   
    20    9   14 ar   
    21   10   11 ar   
    22   10   81 1    
    23   11   12 ar   
    24   11   71 1    
    25   12   13 ar   
    26   12   82 1    
    27   13   14 ar   
    28   13   15 1    
    29   14   83 1    
    30   15   16 1    
    31   15   84 1    
    32   15   85 1    
    33   16   17 1    
    34   17   18 1    
    35   17   86 1    
    36   17   87 1    
    37   18   19 1    
    38   18   37 1    
    39   18   88 1    
    40   19   20 am   BACKBONE|DICT|INTERRES
    41   19   89 1    
    42   20   21 2    
    43   20   22 1    
    44   22   23 1    
    45   22   24 1    
    46   22   90 1    
    47   23   91 1    
    48   23   92 1    
    49   23   93 1    
    50   24   25 am   BACKBONE|DICT|INTERRES
    51   24   94 1    
    52   25   26 2    
    53   25   27 1    
    54   27   28 1    
    55   27   29 1    
    56   27   95 1    
    57   28   96 1    
    58   28   97 1    
    59   28   98 1    
    60   29   30 am   BACKBONE|DICT|INTERRES
    61   29   99 1    
    62   30   31 2    
    63   30   32 1    
    64   32   33 1    
    65   32   34 1    
    66   32  100 1    
    67   33  101 1    
    68   33  102 1    
    69   33  103 1    
    70   34   35 am   BACKBONE|DICT|INTERRES
    71   34  104 1    
    72   35   36 2    
    73   37   38 2    
    74   37   39 am   BACKBONE|DICT|INTERRES
    75   39   40 1    
    76   39  105 1    
    77   40   41 1    
    78   40   42 1    
    79   40  106 1    
    80   41  107 1    
    81   41  108 1    
    82   41  109 1    
    83   42   43 2    
    84   42   44 am   BACKBONE|DICT|INTERRES
    85   44   45 1    
    86   44  110 1    
    87   45   46 1    
    88   45   47 1    
    89   45  111 1    
    90   46  112 1    
    91   46  113 1    
    92   46  114 1    
    93   47   48 2    
    94   47   49 am   BACKBONE|DICT|INTERRES
    95   49   50 1    
    96   49  115 1    
    97   50   51 1    
    98   50   52 1    
    99   50  116 1    
   100   51  117 1    
   101   51  118 1    
   102   51  119 1    
   103   52   53 2    
   104   52   54 am   BACKBONE|DICT|INTERRES
   105   54   55 1    
   106   54  120 1    
   107   55   56 1    
   108   55   57 1    
   109   55  121 1    
   110   56  122 1    
   111   56  123 1    
   112   56  124 1    
   113   57   58 2    
   114   57   59 am   BACKBONE|DICT|INTERRES
   115   59   60 1    
   116   59  125 1    
   117   60   61 1    
   118   60   62 1    
   119   60  126 1    
   120   61  127 1    
   121   61  128 1    
   122   61  129 1    
   123   62   63 2    
   124   62   64 am   BACKBONE|DICT|INTERRES
   125   64   65 1    
   126   64  130 1    
   127   65   66 1    
   128   65   69 1    
   129   65  131 1    
   130   66   67 am   BACKBONE|DICT|INTERRES
   131   66   68 2    
   132   67  132 1    
   133   67  133 1    
   134   69   70 1    
   135   69  134 1    
   136   69  135 1    
   137   70   71 1    
   138   71  136 1    
   139   71  137 1    
@<TRIPOS>SUBSTRUCTURE
     1 UNK         1 GROUP             0       ****    0 ROOT    
