@<TRIPOS>MOLECULE
3R137
137   139    1
SMALL
USER_CHARGES


@<TRIPOS>ATOM
      1 CA         28.9895   -5.7193   -0.3982 C.3       0 UNK        -0.2020 
      2 C          28.2945   -4.4353    0.0290 C.2       0 UNK         0.4855 
      3 O          27.3660   -4.4783    0.8357 O.2       0 UNK        -0.5197 
      4 N          28.7400   -3.2933   -0.5112 N.am      1 UNK        -0.4892 
      5 CA         28.2342   -1.9414   -0.2204 C.3       1 UNK         0.0835 
      6 C6         29.1238   -0.8224   -0.8335 C.3       12 UNK        -0.0855 
      7 S7         30.9266   -1.1312   -0.7170 S.3       12 UNK        -0.2931 
      8 C8         31.4641   -0.9318   -2.4526 C.3       12 UNK         0.0378 
      9 C9         31.3948   -2.2166   -3.2737 C.ar      12 UNK        -0.0802 
     10 C10        32.5266   -2.6818   -3.9528 C.ar      12 UNK        -0.0944 
     11 C11        32.4502   -3.8149   -4.7699 C.ar      12 UNK        -0.0787 
     12 C12        31.2399   -4.5066   -4.8827 C.ar      12 UNK        -0.0862 
     13 C13        30.1026   -4.0518   -4.2132 C.ar      12 UNK        -0.0733 
     14 C14        30.1884   -2.9052   -3.4207 C.ar      12 UNK        -0.0832 
     15 C15        28.7623   -4.7549   -4.3868 C.3       12 UNK         0.0240 
     16 S16        27.8817   -4.1982   -5.8846 S.3       12 UNK        -0.2522 
     17 C17        28.0361   -2.3882   -5.7433 C.3       12 UNK        -0.0967 
     18 CA         27.2402   -1.6252   -6.8168 C.3       5 UNK         0.0660 
     19 N          25.7937   -1.7875   -6.6834 N.am      5 UNK        -0.4015 
     20 C          24.9199   -1.5690   -7.6758 C.2       4 UNK         0.4946 
     21 O          25.2479   -1.2872   -8.8283 O.2       4 UNK        -0.5353 
     22 CA         23.4253   -1.6475   -7.3174 C.3       4 UNK         0.0277 
     23 CB         22.9092   -3.0869   -7.4734 C.3       4 UNK        -0.1981 
     24 N          23.1356   -1.1675   -5.9632 N.am      4 UNK        -0.4209 
     25 C          23.3100    0.0972   -5.5521 C.2       3 UNK         0.4942 
     26 O          23.6747    1.0114   -6.2907 O.2       3 UNK        -0.5208 
     27 CA         23.0968    0.3765   -4.0534 C.3       3 UNK         0.0250 
     28 CB         21.6291    0.7384   -3.7769 C.3       3 UNK        -0.1990 
     29 N          23.5037   -0.7350   -3.1843 N.am      3 UNK        -0.4232 
     30 C          24.7498   -1.2221   -3.0995 C.2       2 UNK         0.4993 
     31 O          25.6976   -0.7982   -3.7667 O.2       2 UNK        -0.5286 
     32 CA         24.9433   -2.4450   -2.1898 C.3       2 UNK         0.0209 
     33 CB         24.6855   -3.7355   -2.9864 C.3       2 UNK        -0.1931 
     34 N          26.2931   -2.5073   -1.6292 N.am      2 UNK        -0.4546 
     35 C          26.7616   -1.7258   -0.6455 C.2       1 UNK         0.5154 
     36 O          26.0866   -0.8644   -0.0795 O.2       1 UNK        -0.5181 
     37 C          27.6298   -0.1391   -6.7959 C.2       5 UNK         0.5014 
     38 O          28.4997    0.2551   -7.5701 O.2       5 UNK        -0.5248 
     39 N          26.9837    0.6706   -5.9429 N.am      6 UNK        -0.4434 
     40 CA         27.1746    2.1253   -5.8899 C.3       6 UNK         0.0363 
     41 CB         26.3724    2.7217   -4.7241 C.3       6 UNK        -0.1936 
     42 C          26.8195    2.8147   -7.2202 C.2       6 UNK         0.5081 
     43 O          27.5712    3.6753   -7.6777 O.2       6 UNK        -0.5248 
     44 N          25.7323    2.3621   -7.8615 N.am      7 UNK        -0.4718 
     45 CA         25.3308    2.7518   -9.2183 C.3       7 UNK         0.0273 
     46 CB         23.9394    2.1715   -9.5164 C.3       7 UNK        -0.1935 
     47 C          26.3355    2.3335  -10.3122 C.2       7 UNK         0.5018 
     48 O          26.3824    2.9773  -11.3604 O.2       7 UNK        -0.5186 
     49 N          27.1367    1.2941  -10.0419 N.am      8 UNK        -0.4240 
     50 CA         28.2406    0.8161  -10.8787 C.3       8 UNK         0.0235 
     51 CB         28.2410   -0.7236  -10.8692 C.3       8 UNK        -0.2000 
     52 C          29.6032    1.3892  -10.4314 C.2       8 UNK         0.4941 
     53 O          30.6390    0.8392  -10.8086 O.2       8 UNK        -0.5273 
     54 N          29.5861    2.4760   -9.6438 N.am      9 UNK        -0.4262 
     55 CA         30.7309    3.2415   -9.1392 C.3       9 UNK         0.0264 
     56 CB         31.5892    3.8063  -10.2928 C.3       9 UNK        -0.1955 
     57 C          31.5683    2.5215   -8.0641 C.2       9 UNK         0.5031 
     58 O          32.7376    2.8697   -7.8881 O.2       9 UNK        -0.5390 
     59 N          30.9640    1.5713   -7.3313 N.am      10 UNK        -0.4204 
     60 CA         31.4850    0.9379   -6.1086 C.3       10 UNK         0.0237 
     61 CB         31.4877    1.9696   -4.9569 C.3       10 UNK        -0.1985 
     62 C          32.8521    0.2418   -6.2805 C.2       10 UNK         0.4970 
     63 O          33.6718    0.2743   -5.3608 O.2       10 UNK        -0.4914 
     64 N          33.0796   -0.3474   -7.4627 N.am      11 UNK        -0.4285 
     65 CA         34.3596   -0.9303   -7.9061 C.3       11 UNK         0.1007 
     66 C          35.5134    0.1064   -8.0953 C.2       11 UNK         0.5703 
     67 N          35.2538    1.4088   -8.1267 N.am      11 UNK        -0.7361 
     68 O          36.6705   -0.2748   -8.2591 O.2       11 UNK        -0.4986 
     69 C69        34.8001   -2.1719   -7.0711 C.3       12 UNK        -0.0947 
     70 S70        33.6611   -3.5865   -7.2409 S.3       12 UNK        -0.2240 
     71 C71        33.6615   -4.2850   -5.5582 C.3       12 UNK         0.0194 
     72 H72        28.2712   -6.4014   -0.8523 H         1 UNK         0.0906 
     73 H73        29.7839   -5.5338   -1.1213 H         1 UNK         0.0906 
     74 H74        29.4285   -6.2140    0.4678 H         1 UNK         0.0906 
     75 H75        29.5688   -3.3183   -1.0892 H         1 UNK         0.3140 
     76 H76        28.2631   -1.8295    0.8659 H         1 UNK         0.1085 
     77 H77        28.8559   -0.6366   -1.8750 H         1 UNK         0.0836 
     78 H78        28.9200    0.1202   -0.3218 H         1 UNK         0.0836 
     79 H79        30.8548   -0.1695   -2.9368 H         1 UNK         0.0731 
     80 H80        32.4843   -0.5446   -2.4471 H         1 UNK         0.0731 
     81 H81        33.4609   -2.1420   -3.8763 H         1 UNK         0.1312 
     82 H82        31.1737   -5.3770   -5.5215 H         1 UNK         0.1406 
     83 H83        29.2934   -2.5259   -2.9581 H         1 UNK         0.1631 
     84 H84        28.1272   -4.5839   -3.5167 H         1 UNK         0.0717 
     85 H85        28.9134   -5.8338   -4.4439 H         1 UNK         0.0717 
     86 H86        27.7342   -2.0791   -4.7421 H         1 UNK         0.0934 
     87 H87        29.0962   -2.1449   -5.8429 H         1 UNK         0.0934 
     88 H88        27.5377   -2.0201   -7.7908 H         1 UNK         0.0739 
     89 H89        25.4483   -1.9716   -5.7528 H         1 UNK         0.3093 
     90 H90        22.8850   -1.0101   -8.0210 H         1 UNK         0.0818 
     91 H91        21.8341   -3.1443   -7.3023 H         1 UNK         0.0819 
     92 H92        23.0946   -3.4591   -8.4821 H         1 UNK         0.0819 
     93 H93        23.3983   -3.7716   -6.7792 H         1 UNK         0.0819 
     94 H94        22.8141   -1.8500   -5.2927 H         1 UNK         0.3041 
     95 H95        23.7131    1.2379   -3.7900 H         1 UNK         0.0784 
     96 H96        20.9582   -0.0952   -3.9888 H         1 UNK         0.0793 
     97 H97        21.3116    1.5780   -4.3973 H         1 UNK         0.0793 
     98 H98        21.4817    1.0335   -2.7378 H         1 UNK         0.0793 
     99 H99        22.7783   -1.1488   -2.6158 H         1 UNK         0.3024 
    100 H100       24.2314   -2.3869   -1.3630 H         1 UNK         0.1171 
    101 H101       24.7932   -4.6181   -2.3553 H         1 UNK         0.0786 
    102 H102       23.6729   -3.7543   -3.3916 H         1 UNK         0.0786 
    103 H103       25.3750   -3.8394   -3.8256 H         1 UNK         0.0786 
    104 H104       26.9197   -3.1871   -2.0290 H         1 UNK         0.2977 
    105 H105       26.3350    0.2616   -5.2753 H         1 UNK         0.3127 
    106 H106       28.2337    2.3068   -5.6982 H         1 UNK         0.0770 
    107 H107       25.2985    2.6409   -4.8889 H         1 UNK         0.0814 
    108 H108       26.6006    3.7811   -4.6008 H         1 UNK         0.0814 
    109 H109       26.6077    2.2258   -3.7821 H         1 UNK         0.0814 
    110 H110       25.1283    1.7004   -7.3791 H         1 UNK         0.2983 
    111 H111       25.2612    3.8414   -9.2426 H         1 UNK         0.0947 
    112 H112       23.5922    2.4740  -10.5053 H         1 UNK         0.0806 
    113 H113       23.2013    2.5185   -8.7929 H         1 UNK         0.0806 
    114 H114       23.9447    1.0812   -9.4908 H         1 UNK         0.0806 
    115 H115       27.0458    0.8421   -9.1408 H         1 UNK         0.3000 
    116 H116       28.0836    1.1430  -11.9085 H         1 UNK         0.0850 
    117 H117       27.2661   -1.1233  -11.1493 H         1 UNK         0.0810 
    118 H118       28.4950   -1.1212   -9.8868 H         1 UNK         0.0810 
    119 H119       28.9690   -1.1201  -11.5780 H         1 UNK         0.0810 
    120 H120       28.6839    2.8170   -9.3314 H         1 UNK         0.3040 
    121 H121       30.2913    4.0974   -8.6250 H         1 UNK         0.0766 
    122 H122       30.9751    4.3245  -11.0292 H         1 UNK         0.0812 
    123 H123       32.1442    3.0219  -10.8080 H         1 UNK         0.0812 
    124 H124       32.3200    4.5254   -9.9207 H         1 UNK         0.0812 
    125 H125       30.0210    1.2829   -7.5914 H         1 UNK         0.3205 
    126 H126       30.7823    0.1466   -5.8435 H         1 UNK         0.0754 
    127 H127       32.1301    2.8214   -5.1820 H         1 UNK         0.0769 
    128 H128       31.8548    1.5401   -4.0261 H         1 UNK         0.0769 
    129 H129       30.4854    2.3499   -4.7624 H         1 UNK         0.0769 
    130 H130       32.3550   -0.3025   -8.1643 H         1 UNK         0.2981 
    131 H131       34.1671   -1.2839   -8.9195 H         1 UNK         0.0541 
    132 H132       34.3118    1.7690   -8.0007 H         1 UNK         0.3459 
    133 H133       36.0153    2.0531   -8.2644 H         1 UNK         0.3459 
    134 H134       34.9171   -1.9082   -6.0199 H         1 UNK         0.0612 
    135 H135       35.7771   -2.5322   -7.3969 H         1 UNK         0.0612 
    136 H136       33.6476   -5.3732   -5.6345 H         1 UNK         0.0624 
    137 H137       34.5864   -4.0324   -5.0377 H         1 UNK         0.0624 
@<TRIPOS>BOND
     1    1    2 1    
     2    1   72 1    
     3    1   73 1    
     4    1   74 1    
     5    2    3 2    
     6    2    4 am   BACKBONE|DICT|INTERRES
     7    4    5 1    
     8    4   75 1    
     9    5    6 1    
    10    5   35 1    
    11    5   76 1    
    12    6    7 1    
    13    6   77 1    
    14    6   78 1    
    15    7    8 1    
    16    8    9 1    
    17    8   79 1    
    18    8   80 1    
    19    9   10 ar   
    20    9   14 ar   
    21   10   11 ar   
    22   10   81 1    
    23   11   12 ar   
    24   11   71 1    
    25   12   13 ar   
    26   12   82 1    
    27   13   14 ar   
    28   13   15 1    
    29   14   83 1    
    30   15   16 1    
    31   15   84 1    
    32   15   85 1    
    33   16   17 1    
    34   17   18 1    
    35   17   86 1    
    36   17   87 1    
    37   18   19 1    
    38   18   37 1    
    39   18   88 1    
    40   19   20 am   BACKBONE|DICT|INTERRES
    41   19   89 1    
    42   20   21 2    
    43   20   22 1    
    44   22   23 1    
    45   22   24 1    
    46   22   90 1    
    47   23   91 1    
    48   23   92 1    
    49   23   93 1    
    50   24   25 am   BACKBONE|DICT|INTERRES
    51   24   94 1    
    52   25   26 2    
    53   25   27 1    
    54   27   28 1    
    55   27   29 1    
    56   27   95 1    
    57   28   96 1    
    58   28   97 1    
    59   28   98 1    
    60   29   30 am   BACKBONE|DICT|INTERRES
    61   29   99 1    
    62   30   31 2    
    63   30   32 1    
    64   32   33 1    
    65   32   34 1    
    66   32  100 1    
    67   33  101 1    
    68   33  102 1    
    69   33  103 1    
    70   34   35 am   BACKBONE|DICT|INTERRES
    71   34  104 1    
    72   35   36 2    
    73   37   38 2    
    74   37   39 am   BACKBONE|DICT|INTERRES
    75   39   40 1    
    76   39  105 1    
    77   40   41 1    
    78   40   42 1    
    79   40  106 1    
    80   41  107 1    
    81   41  108 1    
    82   41  109 1    
    83   42   43 2    
    84   42   44 am   BACKBONE|DICT|INTERRES
    85   44   45 1    
    86   44  110 1    
    87   45   46 1    
    88   45   47 1    
    89   45  111 1    
    90   46  112 1    
    91   46  113 1    
    92   46  114 1    
    93   47   48 2    
    94   47   49 am   BACKBONE|DICT|INTERRES
    95   49   50 1    
    96   49  115 1    
    97   50   51 1    
    98   50   52 1    
    99   50  116 1    
   100   51  117 1    
   101   51  118 1    
   102   51  119 1    
   103   52   53 2    
   104   52   54 am   BACKBONE|DICT|INTERRES
   105   54   55 1    
   106   54  120 1    
   107   55   56 1    
   108   55   57 1    
   109   55  121 1    
   110   56  122 1    
   111   56  123 1    
   112   56  124 1    
   113   57   58 2    
   114   57   59 am   BACKBONE|DICT|INTERRES
   115   59   60 1    
   116   59  125 1    
   117   60   61 1    
   118   60   62 1    
   119   60  126 1    
   120   61  127 1    
   121   61  128 1    
   122   61  129 1    
   123   62   63 2    
   124   62   64 am   BACKBONE|DICT|INTERRES
   125   64   65 1    
   126   64  130 1    
   127   65   66 1    
   128   65   69 1    
   129   65  131 1    
   130   66   67 am   BACKBONE|DICT|INTERRES
   131   66   68 2    
   132   67  132 1    
   133   67  133 1    
   134   69   70 1    
   135   69  134 1    
   136   69  135 1    
   137   70   71 1    
   138   71  136 1    
   139   71  137 1    
@<TRIPOS>SUBSTRUCTURE
     1 UNK         1 GROUP             0       ****    0 ROOT    
