@<TRIPOS>MOLECULE
3R137
137   139    1
SMALL
USER_CHARGES


@<TRIPOS>ATOM
      1 CA         24.1676   -5.7217   -4.6520 C.3       0 UNK        -0.2020 
      2 C          24.4653   -5.0404   -3.3255 C.2       0 UNK         0.4855 
      3 O          23.6461   -4.2608   -2.8376 O.2       0 UNK        -0.5197 
      4 N          25.6382   -5.3142   -2.7409 N.am      1 UNK        -0.4892 
      5 CA         26.1389   -4.6921   -1.5110 C.3       1 UNK         0.0835 
      6 C6         27.4269   -5.3748   -0.9780 C.3       12 UNK        -0.0855 
      7 S7         28.6648   -5.8002   -2.2578 S.3       12 UNK        -0.2931 
      8 C8         30.2307   -5.5395   -1.3689 C.3       12 UNK         0.0378 
      9 C9         30.8681   -4.2081   -1.7351 C.ar      12 UNK        -0.0802 
     10 C10        31.7820   -4.1462   -2.7910 C.ar      12 UNK        -0.0944 
     11 C11        32.4000   -2.9388   -3.1241 C.ar      12 UNK        -0.0787 
     12 C12        32.1049   -1.7889   -2.3881 C.ar      12 UNK        -0.0862 
     13 C13        31.1901   -1.8340   -1.3319 C.ar      12 UNK        -0.0733 
     14 C14        30.5710   -3.0481   -1.0115 C.ar      12 UNK        -0.0832 
     15 C15        30.8936   -0.5788   -0.5179 C.3       12 UNK         0.0240 
     16 S16        30.4224    0.8506   -1.5497 S.3       12 UNK        -0.2522 
     17 C17        28.9054    0.2361   -2.3476 C.3       12 UNK        -0.0967 
     18 CA         29.0263    0.1643   -3.8931 C.3       5 UNK         0.0660 
     19 N          28.1735   -0.8934   -4.4408 N.am      5 UNK        -0.4015 
     20 C          28.0556   -1.2334   -5.7324 C.2       4 UNK         0.4946 
     21 O          28.7067   -0.7247   -6.6452 O.2       4 UNK        -0.5353 
     22 CA         26.9916   -2.2914   -6.0628 C.3       4 UNK         0.0277 
     23 CB         27.5399   -3.7105   -5.8386 C.3       4 UNK        -0.1981 
     24 N          25.7814   -2.0860   -5.2609 N.am      4 UNK        -0.4209 
     25 C          24.8301   -1.1842   -5.5513 C.2       3 UNK         0.4942 
     26 O          24.8076   -0.5242   -6.5877 O.2       3 UNK        -0.5208 
     27 CA         23.7206   -0.9519   -4.5112 C.3       3 UNK         0.0250 
     28 CB         22.4736   -1.7842   -4.8491 C.3       3 UNK        -0.1990 
     29 N          24.1511   -1.2273   -3.1384 N.am      3 UNK        -0.4232 
     30 C          25.0102   -0.4518   -2.4583 C.2       2 UNK         0.4993 
     31 O          25.5070    0.5771   -2.9157 O.2       2 UNK        -0.5286 
     32 CA         25.4382   -0.9277   -1.0576 C.3       2 UNK         0.0209 
     33 CB         24.4793   -0.3799    0.0108 C.3       2 UNK        -0.1931 
     34 N          25.5312   -2.3860   -0.9320 N.am      2 UNK        -0.4546 
     35 C          26.3016   -3.1710   -1.6982 C.2       1 UNK         0.5154 
     36 O          27.0535   -2.7356   -2.5723 O.2       1 UNK        -0.5181 
     37 C          28.7369    1.5374   -4.5373 C.2       5 UNK         0.5014 
     38 O          29.6603    2.2036   -5.0086 O.2       5 UNK        -0.5248 
     39 N          27.4522    1.9179   -4.5617 N.am      6 UNK        -0.4434 
     40 CA         26.9612    3.1977   -5.0753 C.3       6 UNK         0.0363 
     41 CB         25.6694    3.5575   -4.3203 C.3       6 UNK        -0.1936 
     42 C          26.7221    3.2231   -6.5977 C.2       6 UNK         0.5081 
     43 O          26.2695    4.2521   -7.1012 O.2       6 UNK        -0.5248 
     44 N          26.9921    2.1195   -7.3125 N.am      7 UNK        -0.4718 
     45 CA         26.7095    1.9789   -8.7477 C.3       7 UNK         0.0273 
     46 CB         26.9190    0.5199   -9.1794 C.3       7 UNK        -0.1935 
     47 C          27.5446    2.8932   -9.6577 C.2       7 UNK         0.5018 
     48 O          27.0963    3.1980  -10.7635 O.2       7 UNK        -0.5186 
     49 N          28.7580    3.2574   -9.2148 N.am      8 UNK        -0.4240 
     50 CA         29.7876    4.0626   -9.8965 C.3       8 UNK         0.0235 
     51 CB         29.2770    5.4827  -10.2094 C.3       8 UNK        -0.2000 
     52 C          30.4053    3.4070  -11.1494 C.2       8 UNK         0.4941 
     53 O          31.6095    3.5459  -11.3635 O.2       8 UNK        -0.5273 
     54 N          29.5922    2.6963  -11.9415 N.am      9 UNK        -0.4262 
     55 CA         30.0150    1.8613  -13.0687 C.3       9 UNK         0.0264 
     56 CB         28.8014    1.5776  -13.9687 C.3       9 UNK        -0.1955 
     57 C          30.6707    0.5430  -12.6158 C.2       9 UNK         0.5031 
     58 O          31.4970   -0.0001  -13.3513 O.2       9 UNK        -0.5390 
     59 N          30.2966    0.0613  -11.4221 N.am      10 UNK        -0.4204 
     60 CA         30.9306   -1.0587  -10.7235 C.3       10 UNK         0.0237 
     61 CB         29.8455   -1.9335  -10.0621 C.3       10 UNK        -0.1985 
     62 C          31.9619   -0.5184   -9.7137 C.2       10 UNK         0.4970 
     63 O          32.4416    0.6068   -9.8678 O.2       10 UNK        -0.4914 
     64 N          32.3048   -1.3272   -8.7047 N.am      11 UNK        -0.4285 
     65 CA         33.2777   -0.9721   -7.6603 C.3       11 UNK         0.1007 
     66 C          32.8180    0.1384   -6.6652 C.2       11 UNK         0.5703 
     67 N          31.5320    0.4569   -6.5730 N.am      11 UNK        -0.7361 
     68 O          33.6508    0.7278   -5.9807 O.2       11 UNK        -0.4986 
     69 C69        33.8247   -2.2385   -6.9525 C.3       12 UNK        -0.0947 
     70 S70        32.5985   -3.0659   -5.8813 S.3       12 UNK        -0.2240 
     71 C71        33.4045   -2.8760   -4.2615 C.3       12 UNK         0.0194 
     72 H72        24.0885   -4.9789   -5.4454 H         1 UNK         0.0906 
     73 H73        24.9463   -6.4323   -4.9285 H         1 UNK         0.0906 
     74 H74        23.2223   -6.2604   -4.5929 H         1 UNK         0.0906 
     75 H75        26.2980   -5.9318   -3.1942 H         1 UNK         0.3140 
     76 H76        25.3672   -4.8447   -0.7529 H         1 UNK         0.1085 
     77 H77        27.1522   -6.3090   -0.4856 H         1 UNK         0.0836 
     78 H78        27.8866   -4.7649   -0.1981 H         1 UNK         0.0836 
     79 H79        30.9107   -6.3538   -1.6245 H         1 UNK         0.0731 
     80 H80        30.0800   -5.6097   -0.2907 H         1 UNK         0.0731 
     81 H81        32.0141   -5.0384   -3.3568 H         1 UNK         0.1312 
     82 H82        32.5872   -0.8531   -2.6366 H         1 UNK         0.1406 
     83 H83        29.8659   -3.0952   -0.1931 H         1 UNK         0.1631 
     84 H84        31.7822   -0.3172    0.0579 H         1 UNK         0.0717 
     85 H85        30.0999   -0.7632    0.2079 H         1 UNK         0.0717 
     86 H86        28.6910   -0.7537   -1.9439 H         1 UNK         0.0934 
     87 H87        28.0689    0.8616   -2.0313 H         1 UNK         0.0934 
     88 H88        30.0489   -0.1181   -4.1522 H         1 UNK         0.0739 
     89 H89        27.6554   -1.4440   -3.7604 H         1 UNK         0.3093 
     90 H90        26.7385   -2.1927   -7.1206 H         1 UNK         0.0818 
     91 H91        26.8027   -4.4675   -6.1052 H         1 UNK         0.0819 
     92 H92        28.4220   -3.8852   -6.4562 H         1 UNK         0.0819 
     93 H93        27.8349   -3.8799   -4.8025 H         1 UNK         0.0819 
     94 H94        25.7537   -2.5467   -4.3608 H         1 UNK         0.3041 
     95 H95        23.4417    0.1030   -4.5664 H         1 UNK         0.0784 
     96 H96        22.0882   -1.5205   -5.8350 H         1 UNK         0.0793 
     97 H97        22.6871   -2.8526   -4.8624 H         1 UNK         0.0793 
     98 H98        21.6719   -1.6101   -4.1314 H         1 UNK         0.0793 
     99 H99        23.8245   -2.0920   -2.7206 H         1 UNK         0.3024 
    100 H100       26.4307   -0.5185   -0.8629 H         1 UNK         0.1171 
    101 H101       24.8223   -0.6248    1.0162 H         1 UNK         0.0786 
    102 H102       24.4094    0.7073   -0.0491 H         1 UNK         0.0786 
    103 H103       23.4707   -0.7782   -0.1077 H         1 UNK         0.0786 
    104 H104       24.9149   -2.8177   -0.2579 H         1 UNK         0.2977 
    105 H105       26.7570    1.3209   -4.1163 H         1 UNK         0.3127 
    106 H106       27.7030    3.9690   -4.8577 H         1 UNK         0.0770 
    107 H107       24.8738    2.8391   -4.5228 H         1 UNK         0.0814 
    108 H108       25.3023    4.5428   -4.6103 H         1 UNK         0.0814 
    109 H109       25.8323    3.5794   -3.2425 H         1 UNK         0.0814 
    110 H110       27.3671    1.3092   -6.8365 H         1 UNK         0.2983 
    111 H111       25.6595    2.2349   -8.9058 H         1 UNK         0.0947 
    112 H112       27.9493    0.2085   -9.0215 H         1 UNK         0.0806 
    113 H113       26.6938    0.3843  -10.2383 H         1 UNK         0.0806 
    114 H114       26.2750   -0.1619   -8.6283 H         1 UNK         0.0806 
    115 H115       29.0197    2.9176   -8.2989 H         1 UNK         0.3000 
    116 H116       30.5997    4.1616   -9.1739 H         1 UNK         0.0850 
    117 H117       30.0796    6.1044  -10.6084 H         1 UNK         0.0810 
    118 H118       28.9010    5.9748   -9.3123 H         1 UNK         0.0810 
    119 H119       28.4760    5.4768  -10.9491 H         1 UNK         0.0810 
    120 H120       28.5993    2.7176  -11.7180 H         1 UNK         0.3040 
    121 H121       30.7534    2.4163  -13.6513 H         1 UNK         0.0766 
    122 H122       29.0877    0.9732  -14.8306 H         1 UNK         0.0812 
    123 H123       28.3676    2.5015  -14.3518 H         1 UNK         0.0812 
    124 H124       28.0194    1.0359  -13.4348 H         1 UNK         0.0812 
    125 H125       29.6552    0.6190  -10.8801 H         1 UNK         0.3205 
    126 H126       31.4720   -1.6789  -11.4408 H         1 UNK         0.0754 
    127 H127       30.2480   -2.9036   -9.7685 H         1 UNK         0.0769 
    128 H128       29.0197   -2.1302  -10.7462 H         1 UNK         0.0769 
    129 H129       29.4345   -1.4711   -9.1655 H         1 UNK         0.0769 
    130 H130       31.8594   -2.2276   -8.6102 H         1 UNK         0.2981 
    131 H131       34.1309   -0.5367   -8.1847 H         1 UNK         0.0541 
    132 H132       31.2366    1.1900   -5.9418 H         1 UNK         0.3459 
    133 H133       30.8275   -0.0719   -7.0667 H         1 UNK         0.3459 
    134 H134       34.1627   -2.9615   -7.6964 H         1 UNK         0.0612 
    135 H135       34.7165   -1.9848   -6.3775 H         1 UNK         0.0612 
    136 H136       34.1541   -3.6588   -4.1383 H         1 UNK         0.0624 
    137 H137       33.9397   -1.9257   -4.2268 H         1 UNK         0.0624 
@<TRIPOS>BOND
     1    1    2 1    
     2    1   72 1    
     3    1   73 1    
     4    1   74 1    
     5    2    3 2    
     6    2    4 am   BACKBONE|DICT|INTERRES
     7    4    5 1    
     8    4   75 1    
     9    5    6 1    
    10    5   35 1    
    11    5   76 1    
    12    6    7 1    
    13    6   77 1    
    14    6   78 1    
    15    7    8 1    
    16    8    9 1    
    17    8   79 1    
    18    8   80 1    
    19    9   10 ar   
    20    9   14 ar   
    21   10   11 ar   
    22   10   81 1    
    23   11   12 ar   
    24   11   71 1    
    25   12   13 ar   
    26   12   82 1    
    27   13   14 ar   
    28   13   15 1    
    29   14   83 1    
    30   15   16 1    
    31   15   84 1    
    32   15   85 1    
    33   16   17 1    
    34   17   18 1    
    35   17   86 1    
    36   17   87 1    
    37   18   19 1    
    38   18   37 1    
    39   18   88 1    
    40   19   20 am   BACKBONE|DICT|INTERRES
    41   19   89 1    
    42   20   21 2    
    43   20   22 1    
    44   22   23 1    
    45   22   24 1    
    46   22   90 1    
    47   23   91 1    
    48   23   92 1    
    49   23   93 1    
    50   24   25 am   BACKBONE|DICT|INTERRES
    51   24   94 1    
    52   25   26 2    
    53   25   27 1    
    54   27   28 1    
    55   27   29 1    
    56   27   95 1    
    57   28   96 1    
    58   28   97 1    
    59   28   98 1    
    60   29   30 am   BACKBONE|DICT|INTERRES
    61   29   99 1    
    62   30   31 2    
    63   30   32 1    
    64   32   33 1    
    65   32   34 1    
    66   32  100 1    
    67   33  101 1    
    68   33  102 1    
    69   33  103 1    
    70   34   35 am   BACKBONE|DICT|INTERRES
    71   34  104 1    
    72   35   36 2    
    73   37   38 2    
    74   37   39 am   BACKBONE|DICT|INTERRES
    75   39   40 1    
    76   39  105 1    
    77   40   41 1    
    78   40   42 1    
    79   40  106 1    
    80   41  107 1    
    81   41  108 1    
    82   41  109 1    
    83   42   43 2    
    84   42   44 am   BACKBONE|DICT|INTERRES
    85   44   45 1    
    86   44  110 1    
    87   45   46 1    
    88   45   47 1    
    89   45  111 1    
    90   46  112 1    
    91   46  113 1    
    92   46  114 1    
    93   47   48 2    
    94   47   49 am   BACKBONE|DICT|INTERRES
    95   49   50 1    
    96   49  115 1    
    97   50   51 1    
    98   50   52 1    
    99   50  116 1    
   100   51  117 1    
   101   51  118 1    
   102   51  119 1    
   103   52   53 2    
   104   52   54 am   BACKBONE|DICT|INTERRES
   105   54   55 1    
   106   54  120 1    
   107   55   56 1    
   108   55   57 1    
   109   55  121 1    
   110   56  122 1    
   111   56  123 1    
   112   56  124 1    
   113   57   58 2    
   114   57   59 am   BACKBONE|DICT|INTERRES
   115   59   60 1    
   116   59  125 1    
   117   60   61 1    
   118   60   62 1    
   119   60  126 1    
   120   61  127 1    
   121   61  128 1    
   122   61  129 1    
   123   62   63 2    
   124   62   64 am   BACKBONE|DICT|INTERRES
   125   64   65 1    
   126   64  130 1    
   127   65   66 1    
   128   65   69 1    
   129   65  131 1    
   130   66   67 am   BACKBONE|DICT|INTERRES
   131   66   68 2    
   132   67  132 1    
   133   67  133 1    
   134   69   70 1    
   135   69  134 1    
   136   69  135 1    
   137   70   71 1    
   138   71  136 1    
   139   71  137 1    
@<TRIPOS>SUBSTRUCTURE
     1 UNK         1 GROUP             0       ****    0 ROOT    
