@<TRIPOS>MOLECULE
3R137
137   139    1
SMALL
USER_CHARGES


@<TRIPOS>ATOM
      1 CA         28.1547   -6.0527    1.9135 C.3       0 UNK        -0.2020 
      2 C          27.2639   -4.8217    1.8419 C.2       0 UNK         0.4855 
      3 O          26.0777   -4.9041    2.1608 O.2       0 UNK        -0.5197 
      4 N          27.8262   -3.6796    1.4260 N.am      1 UNK        -0.4892 
      5 CA         27.1238   -2.3988    1.2664 C.3       1 UNK         0.0835 
      6 C6         28.1065   -1.1973    1.2353 C.3       12 UNK        -0.0855 
      7 S7         29.5145   -1.4107    0.0894 S.3       12 UNK        -0.2931 
      8 C8         28.9876   -0.3743   -1.3083 C.3       12 UNK         0.0378 
      9 C9         29.7459   -0.7315   -2.5765 C.ar      12 UNK        -0.0802 
     10 C10        30.6211    0.1804   -3.1753 C.ar      12 UNK        -0.0944 
     11 C11        31.2611   -0.1392   -4.3780 C.ar      12 UNK        -0.0787 
     12 C12        31.0293   -1.3851   -4.9704 C.ar      12 UNK        -0.0862 
     13 C13        30.1792   -2.3131   -4.3654 C.ar      12 UNK        -0.0733 
     14 C14        29.5336   -1.9750   -3.1756 C.ar      12 UNK        -0.0832 
     15 C15        29.9671   -3.6906   -4.9715 C.3       12 UNK         0.0240 
     16 S16        28.3541   -3.8269   -5.7977 S.3       12 UNK        -0.2522 
     17 C17        28.6883   -3.0846   -7.4305 C.3       12 UNK        -0.0967 
     18 CA         27.7959   -1.8686   -7.7868 C.3       5 UNK         0.0660 
     19 N          26.3909   -2.0640   -7.4170 N.am      5 UNK        -0.4015 
     20 C          25.3648   -1.3939   -7.9546 C.2       4 UNK         0.4946 
     21 O          25.4900   -0.5366   -8.8298 O.2       4 UNK        -0.5353 
     22 CA         23.9701   -1.7132   -7.3933 C.3       4 UNK         0.0277 
     23 CB         23.5173   -3.1245   -7.8038 C.3       4 UNK        -0.1981 
     24 N          23.8833   -1.5660   -5.9360 N.am      4 UNK        -0.4209 
     25 C          24.0683   -0.4113   -5.2797 C.2       3 UNK         0.4942 
     26 O          24.3980    0.6378   -5.8283 O.2       3 UNK        -0.5208 
     27 CA         23.8384   -0.4049   -3.7600 C.3       3 UNK         0.0250 
     28 CB         22.3911    0.0040   -3.4427 C.3       3 UNK        -0.1990 
     29 N          24.1428   -1.6720   -3.0916 N.am      3 UNK        -0.4232 
     30 C          25.3753   -2.1798   -2.9629 C.2       2 UNK         0.4993 
     31 O          26.3745   -1.6908   -3.4902 O.2       2 UNK        -0.5286 
     32 CA         25.5093   -3.4468   -2.0992 C.3       2 UNK         0.0209 
     33 CB         26.0504   -4.6248   -2.9249 C.3       2 UNK        -0.1931 
     34 N          26.3696   -3.2458   -0.9292 N.am      2 UNK        -0.4546 
     35 C          26.1374   -2.3859    0.0752 C.2       1 UNK         0.5154 
     36 O          25.1686   -1.6255    0.1111 O.2       1 UNK        -0.5181 
     37 C          28.3682   -0.5261   -7.2880 C.2       5 UNK         0.5014 
     38 O          29.3003   -0.0135   -7.9145 O.2       5 UNK        -0.5248 
     39 N          27.7830    0.0396   -6.2204 N.am      6 UNK        -0.4434 
     40 CA         28.0623    1.3951   -5.7459 C.3       6 UNK         0.0363 
     41 CB         27.4582    1.6016   -4.3475 C.3       6 UNK        -0.1936 
     42 C          27.5340    2.4558   -6.7241 C.2       6 UNK         0.5081 
     43 O          28.2840    3.3568   -7.0960 O.2       6 UNK        -0.5248 
     44 N          26.2687    2.3162   -7.1484 N.am      7 UNK        -0.4718 
     45 CA         25.6032    3.1962   -8.1148 C.3       7 UNK         0.0273 
     46 CB         24.1032    2.8665   -8.1700 C.3       7 UNK        -0.1935 
     47 C          26.2251    3.1241   -9.5176 C.2       7 UNK         0.5018 
     48 O          26.3652    4.1596  -10.1694 O.2       7 UNK        -0.5186 
     49 N          26.6214    1.9150   -9.9410 N.am      8 UNK        -0.4240 
     50 CA         27.3853    1.6790  -11.1701 C.3       8 UNK         0.0235 
     51 CB         27.3581    0.1787  -11.5028 C.3       8 UNK        -0.2000 
     52 C          28.8417    2.1774  -11.0911 C.2       8 UNK         0.4941 
     53 O          29.4687    2.3396  -12.1385 O.2       8 UNK        -0.5273 
     54 N          29.3484    2.3937   -9.8664 N.am      9 UNK        -0.4262 
     55 CA         30.7094    2.8059   -9.5106 C.3       9 UNK         0.0264 
     56 CB         30.9752    4.2583   -9.9596 C.3       9 UNK        -0.1955 
     57 C          31.7709    1.8084  -10.0090 C.2       9 UNK         0.5031 
     58 O          32.7791    2.2193  -10.5875 O.2       9 UNK        -0.5390 
     59 N          31.5076    0.5116   -9.7929 N.am      10 UNK        -0.4204 
     60 CA         32.3894   -0.5882  -10.1874 C.3       10 UNK         0.0237 
     61 CB         31.5866   -1.9011  -10.2480 C.3       10 UNK        -0.1985 
     62 C          33.5992   -0.6706   -9.2436 C.2       10 UNK         0.4970 
     63 O          34.6991   -0.2690   -9.6255 O.2       10 UNK        -0.4914 
     64 N          33.3470   -1.1410   -8.0154 N.am      11 UNK        -0.4285 
     65 CA         34.2953   -1.2002   -6.8911 C.3       11 UNK         0.1007 
     66 C          35.5451   -2.1020   -7.1329 C.2       11 UNK         0.5703 
     67 N          36.5357   -2.0557   -6.2515 N.am      11 UNK        -0.7361 
     68 O          35.6036   -2.8929   -8.0731 O.2       11 UNK        -0.4986 
     69 C69        34.6111    0.2309   -6.3437 C.3       12 UNK        -0.0947 
     70 S70        33.9354    0.4951   -4.6719 S.3       12 UNK        -0.2240 
     71 C71        32.1899    0.8651   -5.0441 C.3       12 UNK         0.0194 
     72 H72        28.1801   -6.4384    2.9323 H         1 UNK         0.0906 
     73 H73        27.7662   -6.8353    1.2624 H         1 UNK         0.0906 
     74 H74        29.1780   -5.8346    1.6083 H         1 UNK         0.0906 
     75 H75        28.8072   -3.6589    1.1802 H         1 UNK         0.3140 
     76 H76        26.4995   -2.2688    2.1539 H         1 UNK         0.1085 
     77 H77        27.5824   -0.2635    1.0207 H         1 UNK         0.0836 
     78 H78        28.5276   -1.0630    2.2329 H         1 UNK         0.0836 
     79 H79        27.9210   -0.5125   -1.4902 H         1 UNK         0.0731 
     80 H80        29.1252    0.6769   -1.0504 H         1 UNK         0.0731 
     81 H81        30.7895    1.1452   -2.7170 H         1 UNK         0.1312 
     82 H82        31.5106   -1.6357   -5.9015 H         1 UNK         0.1406 
     83 H83        28.8510   -2.6776   -2.7179 H         1 UNK         0.1631 
     84 H84        30.0116   -4.4376   -4.1776 H         1 UNK         0.0717 
     85 H85        30.7687   -3.9448   -5.6667 H         1 UNK         0.0717 
     86 H86        29.7461   -2.8354   -7.5201 H         1 UNK         0.0934 
     87 H87        28.5201   -3.8705   -8.1685 H         1 UNK         0.0934 
     88 H88        27.8190   -1.7940   -8.8754 H         1 UNK         0.0739 
     89 H89        26.2190   -2.7347   -6.6812 H         1 UNK         0.3093 
     90 H90        23.2745   -0.9965   -7.8355 H         1 UNK         0.0818 
     91 H91        22.4810   -3.3059   -7.5179 H         1 UNK         0.0819 
     92 H92        23.5786   -3.2542   -8.8854 H         1 UNK         0.0819 
     93 H93        24.1312   -3.9016   -7.3470 H         1 UNK         0.0819 
     94 H94        23.6131   -2.3803   -5.4043 H         1 UNK         0.3041 
     95 H95        24.5012    0.3539   -3.3384 H         1 UNK         0.0784 
     96 H96        21.6726   -0.7299   -3.8099 H         1 UNK         0.0793 
     97 H97        22.2372    0.1191   -2.3695 H         1 UNK         0.0793 
     98 H98        22.1456    0.9606   -3.9067 H         1 UNK         0.0793 
     99 H99        23.3744   -2.1280   -2.6208 H         1 UNK         0.3024 
    100 H100       24.5190   -3.7233   -1.7308 H         1 UNK         0.1171 
    101 H101       25.4656   -4.7719   -3.8339 H         1 UNK         0.0786 
    102 H102       26.0108   -5.5563   -2.3600 H         1 UNK         0.0786 
    103 H103       27.0850   -4.4611   -3.2254 H         1 UNK         0.0786 
    104 H104       27.1948   -3.8228   -0.8664 H         1 UNK         0.2977 
    105 H105       27.0572   -0.4708   -5.7360 H         1 UNK         0.3127 
    106 H106       29.1458    1.5066   -5.6704 H         1 UNK         0.0770 
    107 H107       26.3702    1.6488   -4.3718 H         1 UNK         0.0814 
    108 H108       27.8131    2.5339   -3.9073 H         1 UNK         0.0814 
    109 H109       27.7332    0.7948   -3.6718 H         1 UNK         0.0814 
    110 H110       25.6971    1.5700   -6.7552 H         1 UNK         0.2983 
    111 H111       25.7144    4.2229   -7.7594 H         1 UNK         0.0947 
    112 H112       23.5849    3.5131   -8.8793 H         1 UNK         0.0806 
    113 H113       23.6315    3.0078   -7.1974 H         1 UNK         0.0806 
    114 H114       23.9287    1.8345   -8.4776 H         1 UNK         0.0806 
    115 H115       26.3803    1.0995   -9.3819 H         1 UNK         0.3000 
    116 H116       26.8961    2.2200  -11.9829 H         1 UNK         0.0850 
    117 H117       27.8483   -0.0183  -12.4572 H         1 UNK         0.0810 
    118 H118       26.3368   -0.1952  -11.5788 H         1 UNK         0.0810 
    119 H119       27.8763   -0.4082  -10.7450 H         1 UNK         0.0810 
    120 H120       28.7406    2.2254   -9.0749 H         1 UNK         0.3040 
    121 H121       30.7589    2.7830   -8.4207 H         1 UNK         0.0766 
    122 H122       31.9442    4.6070   -9.6003 H         1 UNK         0.0812 
    123 H123       30.2196    4.9373   -9.5642 H         1 UNK         0.0812 
    124 H124       30.9771    4.3532  -11.0459 H         1 UNK         0.0812 
    125 H125       30.6732    0.2777   -9.2587 H         1 UNK         0.3205 
    126 H126       32.7691   -0.3872  -11.1918 H         1 UNK         0.0754 
    127 H127       32.2361   -2.7470  -10.4775 H         1 UNK         0.0769 
    128 H128       30.8269   -1.8570  -11.0289 H         1 UNK         0.0769 
    129 H129       31.0784   -2.1196   -9.3100 H         1 UNK         0.0769 
    130 H130       32.4172   -1.4770   -7.8246 H         1 UNK         0.2981 
    131 H131       33.7586   -1.7577   -6.1245 H         1 UNK         0.0541 
    132 H132       37.3381   -2.6514   -6.3834 H         1 UNK         0.3459 
    133 H133       36.4908   -1.4415   -5.4532 H         1 UNK         0.3459 
    134 H134       34.2166    1.0117   -6.9960 H         1 UNK         0.0612 
    135 H135       35.6822    0.4331   -6.3043 H         1 UNK         0.0612 
    136 H136       31.9647    1.8766   -4.7029 H         1 UNK         0.0624 
    137 H137       32.0124    0.8643   -6.1208 H         1 UNK         0.0624 
@<TRIPOS>BOND
     1    1    2 1    
     2    1   72 1    
     3    1   73 1    
     4    1   74 1    
     5    2    3 2    
     6    2    4 am   BACKBONE|DICT|INTERRES
     7    4    5 1    
     8    4   75 1    
     9    5    6 1    
    10    5   35 1    
    11    5   76 1    
    12    6    7 1    
    13    6   77 1    
    14    6   78 1    
    15    7    8 1    
    16    8    9 1    
    17    8   79 1    
    18    8   80 1    
    19    9   10 ar   
    20    9   14 ar   
    21   10   11 ar   
    22   10   81 1    
    23   11   12 ar   
    24   11   71 1    
    25   12   13 ar   
    26   12   82 1    
    27   13   14 ar   
    28   13   15 1    
    29   14   83 1    
    30   15   16 1    
    31   15   84 1    
    32   15   85 1    
    33   16   17 1    
    34   17   18 1    
    35   17   86 1    
    36   17   87 1    
    37   18   19 1    
    38   18   37 1    
    39   18   88 1    
    40   19   20 am   BACKBONE|DICT|INTERRES
    41   19   89 1    
    42   20   21 2    
    43   20   22 1    
    44   22   23 1    
    45   22   24 1    
    46   22   90 1    
    47   23   91 1    
    48   23   92 1    
    49   23   93 1    
    50   24   25 am   BACKBONE|DICT|INTERRES
    51   24   94 1    
    52   25   26 2    
    53   25   27 1    
    54   27   28 1    
    55   27   29 1    
    56   27   95 1    
    57   28   96 1    
    58   28   97 1    
    59   28   98 1    
    60   29   30 am   BACKBONE|DICT|INTERRES
    61   29   99 1    
    62   30   31 2    
    63   30   32 1    
    64   32   33 1    
    65   32   34 1    
    66   32  100 1    
    67   33  101 1    
    68   33  102 1    
    69   33  103 1    
    70   34   35 am   BACKBONE|DICT|INTERRES
    71   34  104 1    
    72   35   36 2    
    73   37   38 2    
    74   37   39 am   BACKBONE|DICT|INTERRES
    75   39   40 1    
    76   39  105 1    
    77   40   41 1    
    78   40   42 1    
    79   40  106 1    
    80   41  107 1    
    81   41  108 1    
    82   41  109 1    
    83   42   43 2    
    84   42   44 am   BACKBONE|DICT|INTERRES
    85   44   45 1    
    86   44  110 1    
    87   45   46 1    
    88   45   47 1    
    89   45  111 1    
    90   46  112 1    
    91   46  113 1    
    92   46  114 1    
    93   47   48 2    
    94   47   49 am   BACKBONE|DICT|INTERRES
    95   49   50 1    
    96   49  115 1    
    97   50   51 1    
    98   50   52 1    
    99   50  116 1    
   100   51  117 1    
   101   51  118 1    
   102   51  119 1    
   103   52   53 2    
   104   52   54 am   BACKBONE|DICT|INTERRES
   105   54   55 1    
   106   54  120 1    
   107   55   56 1    
   108   55   57 1    
   109   55  121 1    
   110   56  122 1    
   111   56  123 1    
   112   56  124 1    
   113   57   58 2    
   114   57   59 am   BACKBONE|DICT|INTERRES
   115   59   60 1    
   116   59  125 1    
   117   60   61 1    
   118   60   62 1    
   119   60  126 1    
   120   61  127 1    
   121   61  128 1    
   122   61  129 1    
   123   62   63 2    
   124   62   64 am   BACKBONE|DICT|INTERRES
   125   64   65 1    
   126   64  130 1    
   127   65   66 1    
   128   65   69 1    
   129   65  131 1    
   130   66   67 am   BACKBONE|DICT|INTERRES
   131   66   68 2    
   132   67  132 1    
   133   67  133 1    
   134   69   70 1    
   135   69  134 1    
   136   69  135 1    
   137   70   71 1    
   138   71  136 1    
   139   71  137 1    
@<TRIPOS>SUBSTRUCTURE
     1 UNK         1 GROUP             0       ****    0 ROOT    
