@<TRIPOS>MOLECULE
3R137
137   139    1
SMALL
USER_CHARGES


@<TRIPOS>ATOM
      1 CA         31.7352    0.0201   -0.8142 C.3       0 UNK        -0.2020 
      2 C          30.6329   -0.7359   -1.5402 C.2       0 UNK         0.4855 
      3 O          30.2419   -0.3469   -2.6406 O.2       0 UNK        -0.5197 
      4 N          30.1383   -1.8169   -0.9271 N.am      1 UNK        -0.4892 
      5 CA         29.0548   -2.6578   -1.4470 C.3       1 UNK         0.0835 
      6 C6         29.0459   -4.0620   -0.7876 C.3       12 UNK        -0.0855 
      7 S7         30.6544   -4.9210   -0.8525 S.3       12 UNK        -0.2931 
      8 C8         30.5520   -5.8129   -2.4378 C.3       12 UNK         0.0378 
      9 C9         30.9377   -4.9367   -3.6235 C.ar      12 UNK        -0.0802 
     10 C10        32.2413   -4.4411   -3.7250 C.ar      12 UNK        -0.0944 
     11 C11        32.6371   -3.6917   -4.8354 C.ar      12 UNK        -0.0787 
     12 C12        31.7089   -3.4422   -5.8513 C.ar      12 UNK        -0.0862 
     13 C13        30.4012   -3.9310   -5.7740 C.ar      12 UNK        -0.0733 
     14 C14        30.0196   -4.6741   -4.6468 C.ar      12 UNK        -0.0832 
     15 C15        29.4774   -3.6536   -6.9622 C.3       12 UNK         0.0240 
     16 S16        27.8242   -4.4292   -6.9134 S.3       12 UNK        -0.2522 
     17 C17        26.8525   -3.1820   -6.0077 C.3       12 UNK        -0.0967 
     18 CA         26.1479   -2.1894   -6.9728 C.3       5 UNK         0.0660 
     19 N          24.8500   -1.7416   -6.4684 N.am      5 UNK        -0.4015 
     20 C          23.8575   -1.2700   -7.2375 C.2       4 UNK         0.4946 
     21 O          23.8900   -1.2586   -8.4681 O.2       4 UNK        -0.5353 
     22 CA         22.6196   -0.7005   -6.5195 C.3       4 UNK         0.0277 
     23 CB         21.5331   -1.7796   -6.3859 C.3       4 UNK        -0.1981 
     24 N          22.9175   -0.1461   -5.1960 N.am      4 UNK        -0.4209 
     25 C          23.6576    0.9510   -4.9802 C.2       3 UNK         0.4942 
     26 O          24.1307    1.6459   -5.8786 O.2       3 UNK        -0.5208 
     27 CA         23.9759    1.2891   -3.5122 C.3       3 UNK         0.0250 
     28 CB         22.8427    2.1222   -2.8925 C.3       3 UNK        -0.1990 
     29 N          24.2396    0.1106   -2.6740 N.am      3 UNK        -0.4232 
     30 C          25.1927   -0.8002   -2.9163 C.2       2 UNK         0.4993 
     31 O          25.9257   -0.7750   -3.9073 O.2       2 UNK        -0.5286 
     32 CA         25.2964   -1.9805   -1.9421 C.3       2 UNK         0.0209 
     33 CB         24.3200   -3.0948   -2.3550 C.3       2 UNK        -0.1931 
     34 N          26.6572   -2.5217   -1.9381 N.am      2 UNK        -0.4546 
     35 C          27.6799   -1.9763   -1.2673 C.2       1 UNK         0.5154 
     36 O          27.5506   -1.0169   -0.5003 O.2       1 UNK        -0.5181 
     37 C          27.0307   -0.9685   -7.2811 C.2       5 UNK         0.5014 
     38 O          27.5765   -0.8761   -8.3801 O.2       5 UNK        -0.5248 
     39 N          27.1205   -0.0354   -6.3215 N.am      6 UNK        -0.4434 
     40 CA         27.9115    1.1951   -6.4044 C.3       6 UNK         0.0363 
     41 CB         27.8356    1.9461   -5.0671 C.3       6 UNK        -0.1936 
     42 C          27.5177    2.1175   -7.5714 C.2       6 UNK         0.5081 
     43 O          28.3783    2.8116   -8.1101 O.2       6 UNK        -0.5248 
     44 N          26.2385    2.0838   -7.9681 N.am      7 UNK        -0.4718 
     45 CA         25.7155    2.7503   -9.1623 C.3       7 UNK         0.0273 
     46 CB         24.1811    2.6577   -9.1535 C.3       7 UNK        -0.1935 
     47 C          26.2773    2.1921  -10.4856 C.2       7 UNK         0.5018 
     48 O          26.3093    2.9291  -11.4722 O.2       7 UNK        -0.5186 
     49 N          26.6967    0.9187  -10.4942 N.am      8 UNK        -0.4240 
     50 CA         27.2889    0.2434  -11.6492 C.3       8 UNK         0.0235 
     51 CB         26.7467   -1.1936  -11.7373 C.3       8 UNK        -0.2000 
     52 C          28.8230    0.2413  -11.5717 C.2       8 UNK         0.4941 
     53 O          29.4735    0.5253  -12.5785 O.2       8 UNK        -0.5273 
     54 N          29.3748   -0.0763  -10.3942 N.am      9 UNK        -0.4262 
     55 CA         30.8085   -0.1588  -10.1319 C.3       9 UNK         0.0264 
     56 CB         31.2888   -1.6075  -10.3414 C.3       9 UNK        -0.1955 
     57 C          31.0671    0.3331   -8.7049 C.2       9 UNK         0.5031 
     58 O          30.9096   -0.4391   -7.7586 O.2       9 UNK        -0.5390 
     59 N          31.4225    1.6172   -8.5737 N.am      10 UNK        -0.4204 
     60 CA         31.7111    2.2758   -7.2983 C.3       10 UNK         0.0237 
     61 CB         31.8428    3.7908   -7.5252 C.3       10 UNK        -0.1985 
     62 C          32.9771    1.7152   -6.6312 C.2       10 UNK         0.4970 
     63 O          34.0060    1.5833   -7.2986 O.2       10 UNK        -0.4914 
     64 N          32.8767    1.4436   -5.3278 N.am      11 UNK        -0.4285 
     65 CA         33.9599    0.9816   -4.4517 C.3       11 UNK         0.1007 
     66 C          33.9872    1.8174   -3.1445 C.2       11 UNK         0.5703 
     67 N          35.0501    1.7037   -2.3597 N.am      11 UNK        -0.7361 
     68 O          33.0607    2.5618   -2.8259 O.2       11 UNK        -0.4986 
     69 C69        33.8523   -0.5418   -4.1617 C.3       12 UNK        -0.0947 
     70 S70        34.2839   -1.5454   -5.6176 S.3       12 UNK        -0.2240 
     71 C71        34.0883   -3.2339   -4.9605 C.3       12 UNK         0.0194 
     72 H72        31.5767    1.0948   -0.9017 H         1 UNK         0.0906 
     73 H73        31.7665   -0.2289    0.2463 H         1 UNK         0.0906 
     74 H74        32.7044   -0.2201   -1.2491 H         1 UNK         0.0906 
     75 H75        30.4949   -2.0851   -0.0214 H         1 UNK         0.3140 
     76 H76        29.2180   -2.7808   -2.5201 H         1 UNK         0.1085 
     77 H77        28.7675   -3.9807    0.2653 H         1 UNK         0.0836 
     78 H78        28.2890   -4.7026   -1.2436 H         1 UNK         0.0836 
     79 H79        31.2365   -6.6616   -2.3998 H         1 UNK         0.0731 
     80 H80        29.5549   -6.2375   -2.5632 H         1 UNK         0.0731 
     81 H81        32.9549   -4.6617   -2.9427 H         1 UNK         0.1312 
     82 H82        32.0105   -2.8767   -6.7233 H         1 UNK         0.1406 
     83 H83        29.0203   -5.0772   -4.5696 H         1 UNK         0.1631 
     84 H84        29.3752   -2.5759   -7.0855 H         1 UNK         0.0717 
     85 H85        29.9729   -4.0115   -7.8657 H         1 UNK         0.0717 
     86 H86        26.1074   -3.7363   -5.4352 H         1 UNK         0.0934 
     87 H87        27.4753   -2.6785   -5.2645 H         1 UNK         0.0934 
     88 H88        25.9618   -2.7032   -7.9191 H         1 UNK         0.0739 
     89 H89        24.7800   -1.6339   -5.4653 H         1 UNK         0.3093 
     90 H90        22.2261    0.1075   -7.1405 H         1 UNK         0.0818 
     91 H91        20.6183   -1.3714   -5.9557 H         1 UNK         0.0819 
     92 H92        21.2728   -2.1929   -7.3615 H         1 UNK         0.0819 
     93 H93        21.8601   -2.6093   -5.7578 H         1 UNK         0.0819 
     94 H94        22.5607   -0.6490   -4.3966 H         1 UNK         0.3041 
     95 H95        24.8822    1.8972   -3.5083 H         1 UNK         0.0784 
     96 H96        22.6421    3.0128   -3.4901 H         1 UNK         0.0793 
     97 H97        21.9120    1.5573   -2.8271 H         1 UNK         0.0793 
     98 H98        23.1018    2.4610   -1.8892 H         1 UNK         0.0793 
     99 H99        23.6653    0.0082   -1.8490 H         1 UNK         0.3024 
    100 H100       25.0424   -1.6362   -0.9366 H         1 UNK         0.1171 
    101 H101       24.3777   -3.9433   -1.6727 H         1 UNK         0.0786 
    102 H102       23.2884   -2.7407   -2.3382 H         1 UNK         0.0786 
    103 H103       24.5223   -3.4619   -3.3620 H         1 UNK         0.0786 
    104 H104       26.8338   -3.2942   -2.5623 H         1 UNK         0.2977 
    105 H105       26.6530   -0.2132   -5.4324 H         1 UNK         0.3127 
    106 H106       28.9441    0.8868   -6.5630 H         1 UNK         0.0770 
    107 H107       26.8203    2.2799   -4.8539 H         1 UNK         0.0814 
    108 H108       28.4747    2.8299   -5.0802 H         1 UNK         0.0814 
    109 H109       28.1659    1.3178   -4.2389 H         1 UNK         0.0814 
    110 H110       25.5731    1.5673   -7.4025 H         1 UNK         0.2983 
    111 H111       25.9982    3.8038   -9.1077 H         1 UNK         0.0947 
    112 H112       23.7527    3.1595  -10.0222 H         1 UNK         0.0806 
    113 H113       23.7604    3.1314   -8.2662 H         1 UNK         0.0806 
    114 H114       23.8407    1.6213   -9.1724 H         1 UNK         0.0806 
    115 H115       26.6903    0.3956   -9.6244 H         1 UNK         0.3000 
    116 H116       27.0033    0.7606  -12.5679 H         1 UNK         0.0850 
    117 H117       27.1581   -1.7122  -12.6043 H         1 UNK         0.0810 
    118 H118       25.6614   -1.2001  -11.8399 H         1 UNK         0.0810 
    119 H119       27.0005   -1.7822  -10.8551 H         1 UNK         0.0810 
    120 H120       28.7685   -0.3094   -9.6065 H         1 UNK         0.3040 
    121 H121       31.3564    0.4878  -10.8210 H         1 UNK         0.0766 
    122 H122       31.1656   -1.9189  -11.3787 H         1 UNK         0.0812 
    123 H123       30.7376   -2.3094   -9.7143 H         1 UNK         0.0812 
    124 H124       32.3462   -1.7074  -10.0935 H         1 UNK         0.0812 
    125 H125       31.5239    2.1818   -9.4041 H         1 UNK         0.3205 
    126 H126       30.8617    2.1090   -6.6350 H         1 UNK         0.0754 
    127 H127       32.0361    4.3107   -6.5858 H         1 UNK         0.0769 
    128 H128       30.9262    4.2091   -7.9423 H         1 UNK         0.0769 
    129 H129       32.6624    4.0286   -8.2046 H         1 UNK         0.0769 
    130 H130       32.0101    1.6373   -4.8455 H         1 UNK         0.2981 
    131 H131       34.9167    1.1784   -4.9393 H         1 UNK         0.0541 
    132 H132       35.8218    1.1042   -2.6074 H         1 UNK         0.3459 
    133 H133       35.0867    2.2394   -1.5067 H         1 UNK         0.3459 
    134 H134       32.8439   -0.8039   -3.8365 H         1 UNK         0.0612 
    135 H135       34.5247   -0.8381   -3.3548 H         1 UNK         0.0612 
    136 H136       34.6007   -3.2984   -3.9994 H         1 UNK         0.0624 
    137 H137       34.6041   -3.9227   -5.6304 H         1 UNK         0.0624 
@<TRIPOS>BOND
     1    1    2 1    
     2    1   72 1    
     3    1   73 1    
     4    1   74 1    
     5    2    3 2    
     6    2    4 am   BACKBONE|DICT|INTERRES
     7    4    5 1    
     8    4   75 1    
     9    5    6 1    
    10    5   35 1    
    11    5   76 1    
    12    6    7 1    
    13    6   77 1    
    14    6   78 1    
    15    7    8 1    
    16    8    9 1    
    17    8   79 1    
    18    8   80 1    
    19    9   10 ar   
    20    9   14 ar   
    21   10   11 ar   
    22   10   81 1    
    23   11   12 ar   
    24   11   71 1    
    25   12   13 ar   
    26   12   82 1    
    27   13   14 ar   
    28   13   15 1    
    29   14   83 1    
    30   15   16 1    
    31   15   84 1    
    32   15   85 1    
    33   16   17 1    
    34   17   18 1    
    35   17   86 1    
    36   17   87 1    
    37   18   19 1    
    38   18   37 1    
    39   18   88 1    
    40   19   20 am   BACKBONE|DICT|INTERRES
    41   19   89 1    
    42   20   21 2    
    43   20   22 1    
    44   22   23 1    
    45   22   24 1    
    46   22   90 1    
    47   23   91 1    
    48   23   92 1    
    49   23   93 1    
    50   24   25 am   BACKBONE|DICT|INTERRES
    51   24   94 1    
    52   25   26 2    
    53   25   27 1    
    54   27   28 1    
    55   27   29 1    
    56   27   95 1    
    57   28   96 1    
    58   28   97 1    
    59   28   98 1    
    60   29   30 am   BACKBONE|DICT|INTERRES
    61   29   99 1    
    62   30   31 2    
    63   30   32 1    
    64   32   33 1    
    65   32   34 1    
    66   32  100 1    
    67   33  101 1    
    68   33  102 1    
    69   33  103 1    
    70   34   35 am   BACKBONE|DICT|INTERRES
    71   34  104 1    
    72   35   36 2    
    73   37   38 2    
    74   37   39 am   BACKBONE|DICT|INTERRES
    75   39   40 1    
    76   39  105 1    
    77   40   41 1    
    78   40   42 1    
    79   40  106 1    
    80   41  107 1    
    81   41  108 1    
    82   41  109 1    
    83   42   43 2    
    84   42   44 am   BACKBONE|DICT|INTERRES
    85   44   45 1    
    86   44  110 1    
    87   45   46 1    
    88   45   47 1    
    89   45  111 1    
    90   46  112 1    
    91   46  113 1    
    92   46  114 1    
    93   47   48 2    
    94   47   49 am   BACKBONE|DICT|INTERRES
    95   49   50 1    
    96   49  115 1    
    97   50   51 1    
    98   50   52 1    
    99   50  116 1    
   100   51  117 1    
   101   51  118 1    
   102   51  119 1    
   103   52   53 2    
   104   52   54 am   BACKBONE|DICT|INTERRES
   105   54   55 1    
   106   54  120 1    
   107   55   56 1    
   108   55   57 1    
   109   55  121 1    
   110   56  122 1    
   111   56  123 1    
   112   56  124 1    
   113   57   58 2    
   114   57   59 am   BACKBONE|DICT|INTERRES
   115   59   60 1    
   116   59  125 1    
   117   60   61 1    
   118   60   62 1    
   119   60  126 1    
   120   61  127 1    
   121   61  128 1    
   122   61  129 1    
   123   62   63 2    
   124   62   64 am   BACKBONE|DICT|INTERRES
   125   64   65 1    
   126   64  130 1    
   127   65   66 1    
   128   65   69 1    
   129   65  131 1    
   130   66   67 am   BACKBONE|DICT|INTERRES
   131   66   68 2    
   132   67  132 1    
   133   67  133 1    
   134   69   70 1    
   135   69  134 1    
   136   69  135 1    
   137   70   71 1    
   138   71  136 1    
   139   71  137 1    
@<TRIPOS>SUBSTRUCTURE
     1 UNK         1 GROUP             0       ****    0 ROOT    
