@<TRIPOS>MOLECULE
3R137
137   139    1
SMALL
USER_CHARGES


@<TRIPOS>ATOM
      1 CA         25.9434   -6.7397   -2.5373 C.3       0 UNK        -0.2020 
      2 C          26.0733   -5.7469   -1.3926 C.2       0 UNK         0.4855 
      3 O          25.3851   -5.8830   -0.3813 O.2       0 UNK        -0.5197 
      4 N          26.9459   -4.7429   -1.5464 N.am      1 UNK        -0.4892 
      5 CA         27.2468   -3.7209   -0.5285 C.3       1 UNK         0.0835 
      6 C6         28.6849   -3.1617   -0.6792 C.3       12 UNK        -0.0855 
      7 S7         29.9422   -4.4892   -0.6355 S.3       12 UNK        -0.2931 
      8 C8         31.3790   -3.7010   -1.4418 C.3       12 UNK         0.0378 
      9 C9         31.0884   -3.1571   -2.8380 C.ar      12 UNK        -0.0802 
     10 C10        31.6015   -1.9095   -3.2100 C.ar      12 UNK        -0.0944 
     11 C11        31.3366   -1.3789   -4.4749 C.ar      12 UNK        -0.0787 
     12 C12        30.5275   -2.0957   -5.3580 C.ar      12 UNK        -0.0862 
     13 C13        30.0202   -3.3504   -5.0129 C.ar      12 UNK        -0.0733 
     14 C14        30.3228   -3.8858   -3.7576 C.ar      12 UNK        -0.0832 
     15 C15        29.1798   -4.1297   -6.0187 C.3       12 UNK         0.0240 
     16 S16        27.5504   -4.6488   -5.3813 S.3       12 UNK        -0.2522 
     17 C17        26.7592   -3.0822   -4.8916 C.3       12 UNK        -0.0967 
     18 CA         26.3341   -2.1825   -6.0899 C.3       5 UNK         0.0660 
     19 N          24.9885   -1.6331   -5.9167 N.am      5 UNK        -0.4015 
     20 C          24.2172   -1.1643   -6.9084 C.2       4 UNK         0.4946 
     21 O          24.4959   -1.2729   -8.1015 O.2       4 UNK        -0.5353 
     22 CA         22.9200   -0.4338   -6.5109 C.3       4 UNK         0.0277 
     23 CB         21.7266   -1.4019   -6.5488 C.3       4 UNK        -0.1981 
     24 N          22.9847    0.2022   -5.1919 N.am      4 UNK        -0.4209 
     25 C          23.7880    1.2283   -4.8737 C.2       3 UNK         0.4942 
     26 O          24.5229    1.7975   -5.6792 O.2       3 UNK        -0.5208 
     27 CA         23.8270    1.6417   -3.3903 C.3       3 UNK         0.0250 
     28 CB         22.7420    2.6893   -3.0954 C.3       3 UNK        -0.1990 
     29 N          23.6905    0.5136   -2.4591 N.am      3 UNK        -0.4232 
     30 C          24.4936   -0.5598   -2.4287 C.2       2 UNK         0.4993 
     31 O          25.4574   -0.7126   -3.1852 O.2       2 UNK        -0.5286 
     32 CA         24.0902   -1.6813   -1.4602 C.3       2 UNK         0.0209 
     33 CB         22.8316   -2.4027   -1.9750 C.3       2 UNK        -0.1931 
     34 N          25.1566   -2.6718   -1.3197 N.am      2 UNK        -0.4546 
     35 C          26.2017   -2.5797   -0.4880 C.2       1 UNK         0.5154 
     36 O          26.3549   -1.6444    0.2999 O.2       1 UNK        -0.5181 
     37 C          27.3198   -1.0186   -6.2899 C.2       5 UNK         0.5014 
     38 O          28.0565   -0.9969   -7.2783 O.2       5 UNK        -0.5248 
     39 N          27.2908   -0.0643   -5.3459 N.am      6 UNK        -0.4434 
     40 CA         28.1902    1.0884   -5.2668 C.3       6 UNK         0.0363 
     41 CB         27.8631    1.9140   -4.0140 C.3       6 UNK        -0.1936 
     42 C          28.1913    1.9801   -6.5190 C.2       6 UNK         0.5081 
     43 O          29.2486    2.4776   -6.9030 O.2       6 UNK        -0.5248 
     44 N          27.0163    2.1555   -7.1357 N.am      7 UNK        -0.4718 
     45 CA         26.8418    2.8972   -8.3845 C.3       7 UNK         0.0273 
     46 CB         25.3692    3.3231   -8.5040 C.3       7 UNK        -0.1935 
     47 C          27.2700    2.1113   -9.6380 C.2       7 UNK         0.5018 
     48 O          27.5001    2.7377  -10.6737 O.2       7 UNK        -0.5186 
     49 N          27.3314    0.7744   -9.5532 N.am      8 UNK        -0.4240 
     50 CA         27.6245   -0.1031  -10.6872 C.3       8 UNK         0.0235 
     51 CB         26.9115   -1.4539  -10.5083 C.3       8 UNK        -0.2000 
     52 C          29.1301   -0.3055  -10.8975 C.2       8 UNK         0.4941 
     53 O          29.5942   -0.1884  -12.0331 O.2       8 UNK        -0.5273 
     54 N          29.8640   -0.6296   -9.8237 N.am      9 UNK        -0.4262 
     55 CA         31.3065   -0.8865   -9.8895 C.3       9 UNK         0.0264 
     56 CB         31.7353   -1.7758   -8.7138 C.3       9 UNK        -0.1955 
     57 C          32.1103    0.4212   -9.8735 C.2       9 UNK         0.5031 
     58 O          31.6949    1.3973   -9.2451 O.2       9 UNK        -0.5390 
     59 N          33.2902    0.3965  -10.5036 N.am      10 UNK        -0.4204 
     60 CA         34.2454    1.5070  -10.5461 C.3       10 UNK         0.0237 
     61 CB         35.0952    1.3835  -11.8257 C.3       10 UNK        -0.1985 
     62 C          35.1029    1.5821   -9.2651 C.2       10 UNK         0.4970 
     63 O          36.3329    1.5710   -9.3479 O.2       10 UNK        -0.4914 
     64 N          34.4429    1.6419   -8.1023 N.am      11 UNK        -0.4285 
     65 CA         35.0751    1.8417   -6.7898 C.3       11 UNK         0.1007 
     66 C          35.6941    3.2602   -6.6472 C.2       11 UNK         0.5703 
     67 N          36.7835    3.3890   -5.9019 N.am      11 UNK        -0.7361 
     68 O          35.1766    4.2460   -7.1706 O.2       11 UNK        -0.4986 
     69 C69        34.0890    1.5588   -5.6277 C.3       12 UNK        -0.0947 
     70 S70        33.6124   -0.1975   -5.5174 S.3       12 UNK        -0.2240 
     71 C71        31.9182   -0.0319   -4.8826 C.3       12 UNK         0.0194 
     72 H72        25.0202   -6.5617   -3.0880 H         1 UNK         0.0906 
     73 H73        26.7781   -6.6667   -3.2339 H         1 UNK         0.0906 
     74 H74        25.9197   -7.7584   -2.1513 H         1 UNK         0.0906 
     75 H75        27.4948   -4.6865   -2.3927 H         1 UNK         0.3140 
     76 H76        27.1918   -4.1999    0.4519 H         1 UNK         0.1085 
     77 H77        28.9145   -2.4598    0.1249 H         1 UNK         0.0836 
     78 H78        28.7684   -2.5969   -1.6090 H         1 UNK         0.0836 
     79 H79        31.7393   -2.9043   -0.7890 H         1 UNK         0.0731 
     80 H80        32.1862   -4.4310   -1.5125 H         1 UNK         0.0731 
     81 H81        32.2143   -1.3490   -2.5170 H         1 UNK         0.1312 
     82 H82        30.2936   -1.6759   -6.3228 H         1 UNK         0.1406 
     83 H83        29.9435   -4.8625   -3.4899 H         1 UNK         0.1631 
     84 H84        29.7341   -5.0209   -6.3153 H         1 UNK         0.0717 
     85 H85        29.0287   -3.5528   -6.9321 H         1 UNK         0.0717 
     86 H86        25.8785   -3.3709   -4.3161 H         1 UNK         0.0934 
     87 H87        27.3981   -2.5650   -4.1720 H         1 UNK         0.0934 
     88 H88        26.3333   -2.7807   -7.0040 H         1 UNK         0.0739 
     89 H89        24.7201   -1.4348   -4.9611 H         1 UNK         0.3093 
     90 H90        22.7499    0.3512   -7.2512 H         1 UNK         0.0818 
     91 H91        20.7874   -0.8831   -6.3555 H         1 UNK         0.0819 
     92 H92        21.6377   -1.8722   -7.5294 H         1 UNK         0.0819 
     93 H93        21.8285   -2.2007   -5.8130 H         1 UNK         0.0819 
     94 H94        22.4037   -0.1917   -4.4666 H         1 UNK         0.3041 
     95 H95        24.7984    2.1001   -3.2017 H         1 UNK         0.0784 
     96 H96        22.8376    3.5472   -3.7628 H         1 UNK         0.0793 
     97 H97        21.7384    2.2832   -3.2285 H         1 UNK         0.0793 
     98 H98        22.8202    3.0660   -2.0754 H         1 UNK         0.0793 
     99 H99        22.9159    0.5585   -1.8119 H         1 UNK         0.3024 
    100 H100       23.8788   -1.2384   -0.4839 H         1 UNK         0.1171 
    101 H101       21.9799   -1.7243   -2.0384 H         1 UNK         0.0786 
    102 H102       22.5414   -3.2137   -1.3063 H         1 UNK         0.0786 
    103 H103       22.9849   -2.8292   -2.9675 H         1 UNK         0.0786 
    104 H104       25.1256   -3.4679   -1.9378 H         1 UNK         0.2977 
    105 H105       26.6441   -0.1837   -4.5692 H         1 UNK         0.3127 
    106 H106       29.1928    0.6857   -5.1460 H         1 UNK         0.0770 
    107 H107       26.8919    2.3999   -4.0993 H         1 UNK         0.0814 
    108 H108       28.6050    2.6994   -3.8640 H         1 UNK         0.0814 
    109 H109       27.8567    1.2961   -3.1156 H         1 UNK         0.0814 
    110 H110       26.1754    1.7841   -6.6999 H         1 UNK         0.2983 
    111 H111       27.4554    3.8000   -8.3414 H         1 UNK         0.0947 
    112 H112       25.2011    3.9075   -9.4096 H         1 UNK         0.0806 
    113 H113       25.0655    3.9408   -7.6585 H         1 UNK         0.0806 
    114 H114       24.7033    2.4597   -8.5420 H         1 UNK         0.0806 
    115 H115       27.2050    0.3299   -8.6512 H         1 UNK         0.3000 
    116 H116       27.2260    0.3520  -11.5969 H         1 UNK         0.0850 
    117 H117       27.1227   -2.1205  -11.3455 H         1 UNK         0.0810 
    118 H118       25.8301   -1.3246  -10.4651 H         1 UNK         0.0810 
    119 H119       27.2222   -1.9665   -9.5979 H         1 UNK         0.0810 
    120 H120       29.4165   -0.6692   -8.9143 H         1 UNK         0.3040 
    121 H121       31.5193   -1.4259  -10.8155 H         1 UNK         0.0766 
    122 H122       32.7256   -2.1975   -8.8894 H         1 UNK         0.0812 
    123 H123       31.0503   -2.6097   -8.5596 H         1 UNK         0.0812 
    124 H124       31.8007   -1.2024   -7.7906 H         1 UNK         0.0812 
    125 H125       33.5824   -0.4608  -10.9513 H         1 UNK         0.3205 
    126 H126       33.6918    2.4464  -10.6110 H         1 UNK         0.0754 
    127 H127       35.7862    2.2225  -11.9195 H         1 UNK         0.0769 
    128 H128       34.4696    1.3829  -12.7186 H         1 UNK         0.0769 
    129 H129       35.6893    0.4686  -11.8311 H         1 UNK         0.0769 
    130 H130       33.4297    1.6601   -8.1300 H         1 UNK         0.2981 
    131 H131       35.8942    1.1232   -6.7159 H         1 UNK         0.0541 
    132 H132       37.2094    2.5901   -5.4580 H         1 UNK         0.3459 
    133 H133       37.1918    4.3033   -5.7852 H         1 UNK         0.3459 
    134 H134       33.1957    2.1778   -5.7333 H         1 UNK         0.0612 
    135 H135       34.5345    1.8266   -4.6676 H         1 UNK         0.0612 
    136 H136       31.9086    0.6484   -4.0296 H         1 UNK         0.0624 
    137 H137       31.3154    0.4313   -5.6640 H         1 UNK         0.0624 
@<TRIPOS>BOND
     1    1    2 1    
     2    1   72 1    
     3    1   73 1    
     4    1   74 1    
     5    2    3 2    
     6    2    4 am   BACKBONE|DICT|INTERRES
     7    4    5 1    
     8    4   75 1    
     9    5    6 1    
    10    5   35 1    
    11    5   76 1    
    12    6    7 1    
    13    6   77 1    
    14    6   78 1    
    15    7    8 1    
    16    8    9 1    
    17    8   79 1    
    18    8   80 1    
    19    9   10 ar   
    20    9   14 ar   
    21   10   11 ar   
    22   10   81 1    
    23   11   12 ar   
    24   11   71 1    
    25   12   13 ar   
    26   12   82 1    
    27   13   14 ar   
    28   13   15 1    
    29   14   83 1    
    30   15   16 1    
    31   15   84 1    
    32   15   85 1    
    33   16   17 1    
    34   17   18 1    
    35   17   86 1    
    36   17   87 1    
    37   18   19 1    
    38   18   37 1    
    39   18   88 1    
    40   19   20 am   BACKBONE|DICT|INTERRES
    41   19   89 1    
    42   20   21 2    
    43   20   22 1    
    44   22   23 1    
    45   22   24 1    
    46   22   90 1    
    47   23   91 1    
    48   23   92 1    
    49   23   93 1    
    50   24   25 am   BACKBONE|DICT|INTERRES
    51   24   94 1    
    52   25   26 2    
    53   25   27 1    
    54   27   28 1    
    55   27   29 1    
    56   27   95 1    
    57   28   96 1    
    58   28   97 1    
    59   28   98 1    
    60   29   30 am   BACKBONE|DICT|INTERRES
    61   29   99 1    
    62   30   31 2    
    63   30   32 1    
    64   32   33 1    
    65   32   34 1    
    66   32  100 1    
    67   33  101 1    
    68   33  102 1    
    69   33  103 1    
    70   34   35 am   BACKBONE|DICT|INTERRES
    71   34  104 1    
    72   35   36 2    
    73   37   38 2    
    74   37   39 am   BACKBONE|DICT|INTERRES
    75   39   40 1    
    76   39  105 1    
    77   40   41 1    
    78   40   42 1    
    79   40  106 1    
    80   41  107 1    
    81   41  108 1    
    82   41  109 1    
    83   42   43 2    
    84   42   44 am   BACKBONE|DICT|INTERRES
    85   44   45 1    
    86   44  110 1    
    87   45   46 1    
    88   45   47 1    
    89   45  111 1    
    90   46  112 1    
    91   46  113 1    
    92   46  114 1    
    93   47   48 2    
    94   47   49 am   BACKBONE|DICT|INTERRES
    95   49   50 1    
    96   49  115 1    
    97   50   51 1    
    98   50   52 1    
    99   50  116 1    
   100   51  117 1    
   101   51  118 1    
   102   51  119 1    
   103   52   53 2    
   104   52   54 am   BACKBONE|DICT|INTERRES
   105   54   55 1    
   106   54  120 1    
   107   55   56 1    
   108   55   57 1    
   109   55  121 1    
   110   56  122 1    
   111   56  123 1    
   112   56  124 1    
   113   57   58 2    
   114   57   59 am   BACKBONE|DICT|INTERRES
   115   59   60 1    
   116   59  125 1    
   117   60   61 1    
   118   60   62 1    
   119   60  126 1    
   120   61  127 1    
   121   61  128 1    
   122   61  129 1    
   123   62   63 2    
   124   62   64 am   BACKBONE|DICT|INTERRES
   125   64   65 1    
   126   64  130 1    
   127   65   66 1    
   128   65   69 1    
   129   65  131 1    
   130   66   67 am   BACKBONE|DICT|INTERRES
   131   66   68 2    
   132   67  132 1    
   133   67  133 1    
   134   69   70 1    
   135   69  134 1    
   136   69  135 1    
   137   70   71 1    
   138   71  136 1    
   139   71  137 1    
@<TRIPOS>SUBSTRUCTURE
     1 UNK         1 GROUP             0       ****    0 ROOT    
