@<TRIPOS>MOLECULE
3R137
137   139    1
SMALL
USER_CHARGES


@<TRIPOS>ATOM
      1 CA         26.2270   -6.0681   -3.3133 C.3       0 UNK        -0.2020 
      2 C          26.3248   -5.3769   -1.9622 C.2       0 UNK         0.4855 
      3 O          25.4351   -5.5438   -1.1275 O.2       0 UNK        -0.5197 
      4 N          27.4026   -4.6140   -1.7324 N.am      1 UNK        -0.4892 
      5 CA         27.6703   -3.9255   -0.4603 C.3       1 UNK         0.0835 
      6 C6         29.1675   -3.5772   -0.2616 C.3       12 UNK        -0.0855 
      7 S7         30.2625   -5.0280   -0.4890 S.3       12 UNK        -0.2931 
      8 C8         31.7441   -4.3199   -1.2927 C.3       12 UNK         0.0378 
      9 C9         31.4083   -3.4326   -2.4846 C.ar      12 UNK        -0.0802 
     10 C10        31.8209   -2.0955   -2.4970 C.ar      12 UNK        -0.0944 
     11 C11        31.4542   -1.2451   -3.5439 C.ar      12 UNK        -0.0787 
     12 C12        30.6593   -1.7477   -4.5788 C.ar      12 UNK        -0.0862 
     13 C13        30.2509   -3.0825   -4.5848 C.ar      12 UNK        -0.0733 
     14 C14        30.6442   -3.9284   -3.5457 C.ar      12 UNK        -0.0832 
     15 C15        29.3553   -3.5912   -5.6985 C.3       12 UNK         0.0240 
     16 S16        27.6087   -3.4823   -5.2062 S.3       12 UNK        -0.2522 
     17 C17        26.7908   -3.5061   -6.8386 C.3       12 UNK        -0.0967 
     18 CA         26.0719   -2.1870   -7.2209 C.3       5 UNK         0.0660 
     19 N          24.9105   -1.9081   -6.3750 N.am      5 UNK        -0.4015 
     20 C          23.6426   -1.9064   -6.8130 C.2       4 UNK         0.4946 
     21 O          23.2994   -2.2962   -7.9304 O.2       4 UNK        -0.5353 
     22 CA         22.5602   -1.3488   -5.8666 C.3       4 UNK         0.0277 
     23 CB         21.8917   -2.4941   -5.0885 C.3       4 UNK        -0.1981 
     24 N          23.0458   -0.3447   -4.9159 N.am      4 UNK        -0.4209 
     25 C          23.7138    0.7780   -5.2222 C.2       3 UNK         0.4942 
     26 O          23.9282    1.1574   -6.3719 O.2       3 UNK        -0.5208 
     27 CA         24.3122    1.5793   -4.0523 C.3       3 UNK         0.0250 
     28 CB         23.4082    2.7735   -3.7087 C.3       3 UNK        -0.1990 
     29 N          24.5684    0.7970   -2.8334 N.am      3 UNK        -0.4232 
     30 C          25.2853   -0.3342   -2.7439 C.2       2 UNK         0.4993 
     31 O          25.8429   -0.8764   -3.7050 O.2       2 UNK        -0.5286 
     32 CA         25.3110   -0.9965   -1.3614 C.3       2 UNK         0.0209 
     33 CB         23.9054   -1.5011   -0.9709 C.3       2 UNK        -0.1931 
     34 N          26.2467   -2.1179   -1.3621 N.am      2 UNK        -0.4546 
     35 C          26.7873   -2.6735   -0.2688 C.2       1 UNK         0.5154 
     36 O          26.6015   -2.2424    0.8708 O.2       1 UNK        -0.5181 
     37 C          27.0174   -0.9704   -7.2749 C.2       5 UNK         0.5014 
     38 O          27.5504   -0.6827   -8.3470 O.2       5 UNK        -0.5248 
     39 N          27.2066   -0.2569   -6.1522 N.am      6 UNK        -0.4434 
     40 CA         28.1706    0.8430   -6.0191 C.3       6 UNK         0.0363 
     41 CB         28.3535    1.1935   -4.5336 C.3       6 UNK        -0.1936 
     42 C          27.8656    2.0986   -6.8562 C.2       6 UNK         0.5081 
     43 O          28.7649    2.9178   -7.0411 O.2       6 UNK        -0.5248 
     44 N          26.6359    2.2368   -7.3725 N.am      7 UNK        -0.4718 
     45 CA         26.2897    3.2664   -8.3578 C.3       7 UNK         0.0273 
     46 CB         24.7639    3.4425   -8.4040 C.3       7 UNK        -0.1935 
     47 C          26.8356    2.9611   -9.7671 C.2       7 UNK         0.5018 
     48 O          26.9558    3.8896  -10.5678 O.2       7 UNK        -0.5186 
     49 N          27.1350    1.6857  -10.0543 N.am      8 UNK        -0.4240 
     50 CA         27.6290    1.2115  -11.3482 C.3       8 UNK         0.0235 
     51 CB         26.7579    0.0347  -11.8199 C.3       8 UNK        -0.2000 
     52 C          29.1038    0.7901  -11.2771 C.2       8 UNK         0.4941 
     53 O          29.8603    1.1016  -12.1982 O.2       8 UNK        -0.5273 
     54 N          29.4866    0.0754  -10.2100 N.am      9 UNK        -0.4262 
     55 CA         30.8403   -0.4316   -9.9853 C.3       9 UNK         0.0264 
     56 CB         30.8137   -1.4427   -8.8265 C.3       9 UNK        -0.1955 
     57 C          31.8327    0.6994   -9.6780 C.2       9 UNK         0.5031 
     58 O          31.5360    1.5670   -8.8548 O.2       9 UNK        -0.5390 
     59 N          33.0226    0.6341  -10.2872 N.am      10 UNK        -0.4204 
     60 CA         34.1366    1.5607  -10.0595 C.3       10 UNK         0.0237 
     61 CB         34.9771    1.6574  -11.3475 C.3       10 UNK        -0.1985 
     62 C          34.9723    1.1458   -8.8312 C.2       10 UNK         0.4970 
     63 O          36.1938    1.0124   -8.9307 O.2       10 UNK        -0.4914 
     64 N          34.2932    0.9130   -7.7034 N.am      11 UNK        -0.4285 
     65 CA         34.8878    0.5359   -6.4156 C.3       11 UNK         0.1007 
     66 C          35.6399    1.7035   -5.7147 C.2       11 UNK         0.5703 
     67 N          36.5022    1.3934   -4.7554 N.am      11 UNK        -0.7361 
     68 O          35.4437    2.8806   -6.0145 O.2       11 UNK        -0.4986 
     69 C69        33.8414   -0.1483   -5.4966 C.3       12 UNK        -0.0947 
     70 S70        32.3740    0.8786   -5.1415 S.3       12 UNK        -0.2240 
     71 C71        31.8800    0.2214   -3.5137 C.3       12 UNK         0.0194 
     72 H72        25.8583   -7.0862   -3.1914 H         1 UNK         0.0906 
     73 H73        25.5359   -5.5301   -3.9618 H         1 UNK         0.0906 
     74 H74        27.1956   -6.1221   -3.8096 H         1 UNK         0.0906 
     75 H75        28.1038   -4.4996   -2.4506 H         1 UNK         0.3140 
     76 H76        27.3955   -4.6128    0.3435 H         1 UNK         0.1085 
     77 H77        29.3346   -3.1907    0.7458 H         1 UNK         0.0836 
     78 H78        29.4505   -2.7704   -0.9376 H         1 UNK         0.0836 
     79 H79        32.3095   -3.7635   -0.5435 H         1 UNK         0.0731 
     80 H80        32.3912   -5.1330   -1.6243 H         1 UNK         0.0731 
     81 H81        32.4090   -1.7081   -1.6761 H         1 UNK         0.1312 
     82 H82        30.3483   -1.0963   -5.3803 H         1 UNK         0.1406 
     83 H83        30.3206   -4.9605   -3.5386 H         1 UNK         0.1631 
     84 H84        29.6018   -4.6243   -5.9477 H         1 UNK         0.0717 
     85 H85        29.5229   -3.0036   -6.6019 H         1 UNK         0.0717 
     86 H86        27.5154   -3.7688   -7.6114 H         1 UNK         0.0934 
     87 H87        26.0686   -4.3240   -6.8371 H         1 UNK         0.0934 
     88 H88        25.7346   -2.3173   -8.2514 H         1 UNK         0.0739 
     89 H89        25.1054   -1.5973   -5.4287 H         1 UNK         0.3093 
     90 H90        21.8048   -0.8650   -6.4890 H         1 UNK         0.0818 
     91 H91        21.0561   -2.1336   -4.4881 H         1 UNK         0.0819 
     92 H92        21.4955   -3.2492   -5.7692 H         1 UNK         0.0819 
     93 H93        22.5955   -2.9942   -4.4217 H         1 UNK         0.0819 
     94 H94        22.9222   -0.5593   -3.9380 H         1 UNK         0.3041 
     95 H95        25.2669    1.9737   -4.3993 H         1 UNK         0.0784 
     96 H96        23.2194    3.3869   -4.5912 H         1 UNK         0.0793 
     97 H97        22.4403    2.4505   -3.3232 H         1 UNK         0.0793 
     98 H98        23.8699    3.4203   -2.9623 H         1 UNK         0.0793 
     99 H99        24.1439    1.1556   -1.9897 H         1 UNK         0.3024 
    100 H100       25.6511   -0.2505   -0.6393 H         1 UNK         0.1171 
    101 H101       23.1771   -0.6899   -0.9441 H         1 UNK         0.0786 
    102 H102       23.9058   -1.9546    0.0204 H         1 UNK         0.0786 
    103 H103       23.5388   -2.2494   -1.6752 H         1 UNK         0.0786 
    104 H104       26.4815   -2.4783   -2.2793 H         1 UNK         0.2977 
    105 H105       26.7541   -0.5555   -5.2908 H         1 UNK         0.3127 
    106 H106       29.1276    0.4744   -6.3907 H         1 UNK         0.0770 
    107 H107       27.4536    1.6238   -4.0995 H         1 UNK         0.0814 
    108 H108       29.1543    1.9228   -4.4049 H         1 UNK         0.0814 
    109 H109       28.6180    0.3143   -3.9460 H         1 UNK         0.0814 
    110 H110       25.9139    1.5645   -7.1380 H         1 UNK         0.2983 
    111 H111       26.7272    4.2150   -8.0383 H         1 UNK         0.0947 
    112 H112       24.4820    4.2328   -9.1010 H         1 UNK         0.0806 
    113 H113       24.3663    3.7166   -7.4266 H         1 UNK         0.0806 
    114 H114       24.2623    2.5292   -8.7266 H         1 UNK         0.0806 
    115 H115       27.0567    0.9902   -9.3198 H         1 UNK         0.3000 
    116 H116       27.5520    2.0030  -12.0969 H         1 UNK         0.0850 
    117 H117       27.1025   -0.3452  -12.7827 H         1 UNK         0.0810 
    118 H118       25.7186    0.3389  -11.9452 H         1 UNK         0.0810 
    119 H119       26.7796   -0.7962  -11.1134 H         1 UNK         0.0810 
    120 H120       28.7959   -0.1533   -9.4971 H         1 UNK         0.3040 
    121 H121       31.1583   -0.9520  -10.8912 H         1 UNK         0.0766 
    122 H122       30.4919   -0.9747   -7.8957 H         1 UNK         0.0812 
    123 H123       30.1357   -2.2700   -9.0370 H         1 UNK         0.0812 
    124 H124       31.8030   -1.8679   -8.6519 H         1 UNK         0.0812 
    125 H125       33.2037   -0.1353  -10.9166 H         1 UNK         0.3205 
    126 H126       33.7382    2.5563   -9.8517 H         1 UNK         0.0754 
    127 H127       35.7870    2.3793  -11.2332 H         1 UNK         0.0769 
    128 H128       34.3712    1.9867  -12.1919 H         1 UNK         0.0769 
    129 H129       35.4275    0.6994  -11.6105 H         1 UNK         0.0769 
    130 H130       33.2966    1.0968   -7.6960 H         1 UNK         0.2981 
    131 H131       35.6476   -0.2164   -6.6367 H         1 UNK         0.0541 
    132 H132       36.6722    0.4345   -4.4952 H         1 UNK         0.3459 
    133 H133       36.9955    2.1350   -4.2834 H         1 UNK         0.3459 
    134 H134       34.3044   -0.4559   -4.5574 H         1 UNK         0.0612 
    135 H135       33.4920   -1.0695   -5.9654 H         1 UNK         0.0612 
    136 H136       32.7073    0.3674   -2.8176 H         1 UNK         0.0624 
    137 H137       31.0498    0.8167   -3.1335 H         1 UNK         0.0624 
@<TRIPOS>BOND
     1    1    2 1    
     2    1   72 1    
     3    1   73 1    
     4    1   74 1    
     5    2    3 2    
     6    2    4 am   BACKBONE|DICT|INTERRES
     7    4    5 1    
     8    4   75 1    
     9    5    6 1    
    10    5   35 1    
    11    5   76 1    
    12    6    7 1    
    13    6   77 1    
    14    6   78 1    
    15    7    8 1    
    16    8    9 1    
    17    8   79 1    
    18    8   80 1    
    19    9   10 ar   
    20    9   14 ar   
    21   10   11 ar   
    22   10   81 1    
    23   11   12 ar   
    24   11   71 1    
    25   12   13 ar   
    26   12   82 1    
    27   13   14 ar   
    28   13   15 1    
    29   14   83 1    
    30   15   16 1    
    31   15   84 1    
    32   15   85 1    
    33   16   17 1    
    34   17   18 1    
    35   17   86 1    
    36   17   87 1    
    37   18   19 1    
    38   18   37 1    
    39   18   88 1    
    40   19   20 am   BACKBONE|DICT|INTERRES
    41   19   89 1    
    42   20   21 2    
    43   20   22 1    
    44   22   23 1    
    45   22   24 1    
    46   22   90 1    
    47   23   91 1    
    48   23   92 1    
    49   23   93 1    
    50   24   25 am   BACKBONE|DICT|INTERRES
    51   24   94 1    
    52   25   26 2    
    53   25   27 1    
    54   27   28 1    
    55   27   29 1    
    56   27   95 1    
    57   28   96 1    
    58   28   97 1    
    59   28   98 1    
    60   29   30 am   BACKBONE|DICT|INTERRES
    61   29   99 1    
    62   30   31 2    
    63   30   32 1    
    64   32   33 1    
    65   32   34 1    
    66   32  100 1    
    67   33  101 1    
    68   33  102 1    
    69   33  103 1    
    70   34   35 am   BACKBONE|DICT|INTERRES
    71   34  104 1    
    72   35   36 2    
    73   37   38 2    
    74   37   39 am   BACKBONE|DICT|INTERRES
    75   39   40 1    
    76   39  105 1    
    77   40   41 1    
    78   40   42 1    
    79   40  106 1    
    80   41  107 1    
    81   41  108 1    
    82   41  109 1    
    83   42   43 2    
    84   42   44 am   BACKBONE|DICT|INTERRES
    85   44   45 1    
    86   44  110 1    
    87   45   46 1    
    88   45   47 1    
    89   45  111 1    
    90   46  112 1    
    91   46  113 1    
    92   46  114 1    
    93   47   48 2    
    94   47   49 am   BACKBONE|DICT|INTERRES
    95   49   50 1    
    96   49  115 1    
    97   50   51 1    
    98   50   52 1    
    99   50  116 1    
   100   51  117 1    
   101   51  118 1    
   102   51  119 1    
   103   52   53 2    
   104   52   54 am   BACKBONE|DICT|INTERRES
   105   54   55 1    
   106   54  120 1    
   107   55   56 1    
   108   55   57 1    
   109   55  121 1    
   110   56  122 1    
   111   56  123 1    
   112   56  124 1    
   113   57   58 2    
   114   57   59 am   BACKBONE|DICT|INTERRES
   115   59   60 1    
   116   59  125 1    
   117   60   61 1    
   118   60   62 1    
   119   60  126 1    
   120   61  127 1    
   121   61  128 1    
   122   61  129 1    
   123   62   63 2    
   124   62   64 am   BACKBONE|DICT|INTERRES
   125   64   65 1    
   126   64  130 1    
   127   65   66 1    
   128   65   69 1    
   129   65  131 1    
   130   66   67 am   BACKBONE|DICT|INTERRES
   131   66   68 2    
   132   67  132 1    
   133   67  133 1    
   134   69   70 1    
   135   69  134 1    
   136   69  135 1    
   137   70   71 1    
   138   71  136 1    
   139   71  137 1    
@<TRIPOS>SUBSTRUCTURE
     1 UNK         1 GROUP             0       ****    0 ROOT    
