@<TRIPOS>MOLECULE
3R137
137   139    1
SMALL
USER_CHARGES


@<TRIPOS>ATOM
      1 CA         29.5079   -5.3048   -1.4277 C.3       0 UNK        -0.2020 
      2 C          28.5865   -4.4540   -0.5671 C.2       0 UNK         0.4855 
      3 O          27.9120   -4.9848    0.3152 O.2       0 UNK        -0.5197 
      4 N          28.5600   -3.1361   -0.8070 N.am      1 UNK        -0.4892 
      5 CA         27.7881   -2.1607   -0.0258 C.3       1 UNK         0.0835 
      6 C6         28.3658   -0.7287   -0.1812 C.3       12 UNK        -0.0855 
      7 S7         28.0283    0.0715   -1.7906 S.3       12 UNK        -0.2931 
      8 C8         29.6874    0.2988   -2.5138 C.3       12 UNK         0.0378 
      9 C9         30.2656   -0.9135   -3.2450 C.ar      12 UNK        -0.0802 
     10 C10        31.6396   -0.9325   -3.5023 C.ar      12 UNK        -0.0944 
     11 C11        32.2205   -1.9777   -4.2245 C.ar      12 UNK        -0.0787 
     12 C12        31.4210   -3.0349   -4.6648 C.ar      12 UNK        -0.0862 
     13 C13        30.0457   -3.0374   -4.4150 C.ar      12 UNK        -0.0733 
     14 C14        29.4716   -1.9675   -3.7194 C.ar      12 UNK        -0.0832 
     15 C15        29.1958   -4.2091   -4.8875 C.3       12 UNK         0.0240 
     16 S16        28.3435   -3.8542   -6.4542 S.3       12 UNK        -0.2522 
     17 C17        26.7247   -3.2790   -5.8452 C.3       12 UNK        -0.0967 
     18 CA         26.0555   -2.2380   -6.7719 C.3       5 UNK         0.0660 
     19 N          24.6342   -2.0999   -6.4607 N.am      5 UNK        -0.4015 
     20 C          23.6867   -1.7247   -7.3300 C.2       4 UNK         0.4946 
     21 O          23.8932   -1.5187   -8.5261 O.2       4 UNK        -0.5353 
     22 CA         22.2631   -1.5444   -6.7705 C.3       4 UNK         0.0277 
     23 CB         21.4473   -2.8347   -6.9524 C.3       4 UNK        -0.1981 
     24 N          22.2461   -1.1548   -5.3571 N.am      4 UNK        -0.4209 
     25 C          22.6416    0.0420   -4.9007 C.2       3 UNK         0.4942 
     26 O          22.9984    0.9667   -5.6312 O.2       3 UNK        -0.5208 
     27 CA         22.6837    0.2251   -3.3717 C.3       3 UNK         0.0250 
     28 CB         21.3351    0.7541   -2.8582 C.3       3 UNK        -0.1990 
     29 N          23.0556   -0.9824   -2.6188 N.am      3 UNK        -0.4232 
     30 C          24.2101   -1.6488   -2.7595 C.2       2 UNK         0.4993 
     31 O          25.0536   -1.3788   -3.6169 O.2       2 UNK        -0.5286 
     32 CA         24.4450   -2.8566   -1.8430 C.3       2 UNK         0.0209 
     33 CB         24.1798   -4.1634   -2.6085 C.3       2 UNK        -0.1931 
     34 N          25.8307   -2.8514   -1.3732 N.am      2 UNK        -0.4546 
     35 C          26.2601   -2.2120   -0.2761 C.2       1 UNK         0.5154 
     36 O          25.5021   -1.6627    0.5260 O.2       1 UNK        -0.5181 
     37 C          26.7461   -0.8621   -6.7163 C.2       5 UNK         0.5014 
     38 O          27.5188   -0.5458   -7.6199 O.2       5 UNK        -0.5248 
     39 N          26.4094   -0.0509   -5.6975 N.am      6 UNK        -0.4434 
     40 CA         26.9094    1.3095   -5.4489 C.3       6 UNK         0.0363 
     41 CB         26.1231    1.9405   -4.2883 C.3       6 UNK        -0.1936 
     42 C          26.8484    2.2429   -6.6699 C.2       6 UNK         0.5081 
     43 O          27.7666    3.0354   -6.8782 O.2       6 UNK        -0.5248 
     44 N          25.7878    2.0977   -7.4751 N.am      7 UNK        -0.4718 
     45 CA         25.5620    2.8170   -8.7305 C.3       7 UNK         0.0273 
     46 CB         24.1558    2.4683   -9.2453 C.3       7 UNK        -0.1935 
     47 C          26.6144    2.5541   -9.8280 C.2       7 UNK         0.5018 
     48 O          26.7181    3.3655  -10.7491 O.2       7 UNK        -0.5186 
     49 N          27.3632    1.4470   -9.7288 N.am      8 UNK        -0.4240 
     50 CA         28.3956    1.0370  -10.6833 C.3       8 UNK         0.0235 
     51 CB         27.8565   -0.1394  -11.5186 C.3       8 UNK        -0.2000 
     52 C          29.7184    0.6795   -9.9813 C.2       8 UNK         0.4941 
     53 O          30.5606    0.0131  -10.5877 O.2       8 UNK        -0.5273 
     54 N          29.9004    1.1140   -8.7256 N.am      9 UNK        -0.4262 
     55 CA         31.0352    0.7682   -7.8645 C.3       9 UNK         0.0264 
     56 CB         30.6299    0.9579   -6.3933 C.3       9 UNK        -0.1955 
     57 C          32.3331    1.5169   -8.2244 C.2       9 UNK         0.5031 
     58 O          32.9255    2.1836   -7.3731 O.2       9 UNK        -0.5390 
     59 N          32.7916    1.3591   -9.4712 N.am      10 UNK        -0.4204 
     60 CA         34.0903    1.8228   -9.9714 C.3       10 UNK         0.0237 
     61 CB         33.9908    2.0326  -11.4940 C.3       10 UNK        -0.1985 
     62 C          35.2143    0.8423   -9.5733 C.2       10 UNK         0.4970 
     63 O          35.9461    0.3510  -10.4349 O.2       10 UNK        -0.4914 
     64 N          35.2878    0.5350   -8.2747 N.am      11 UNK        -0.4285 
     65 CA         36.1804   -0.4631   -7.6733 C.3       11 UNK         0.1007 
     66 C          37.6594    0.0052   -7.6297 C.2       11 UNK         0.5703 
     67 N          38.6041   -0.9243   -7.6786 N.am      11 UNK        -0.7361 
     68 O          37.9588    1.1930   -7.5146 O.2       11 UNK        -0.4986 
     69 C69        35.6807   -0.8825   -6.2648 C.3       12 UNK        -0.0947 
     70 S70        33.9555   -1.4751   -6.2934 S.3       12 UNK        -0.2240 
     71 C71        33.7047   -1.9461   -4.5559 C.3       12 UNK         0.0194 
     72 H72        28.9240   -5.9303   -2.1021 H         1 UNK         0.0906 
     73 H73        30.1895   -4.6958   -2.0207 H         1 UNK         0.0906 
     74 H74        30.1104   -5.9580   -0.7970 H         1 UNK         0.0906 
     75 H75        29.1450   -2.7445   -1.5327 H         1 UNK         0.3140 
     76 H76        27.9150   -2.4331    1.0248 H         1 UNK         0.1085 
     77 H77        27.9474   -0.0837    0.5937 H         1 UNK         0.0836 
     78 H78        29.4404   -0.7402    0.0071 H         1 UNK         0.0836 
     79 H79        30.3728    0.6288   -1.7315 H         1 UNK         0.0731 
     80 H80        29.6282    1.1195   -3.2296 H         1 UNK         0.0731 
     81 H81        32.2570   -0.1099   -3.1674 H         1 UNK         0.1312 
     82 H82        31.8703   -3.8467   -5.2207 H         1 UNK         0.1406 
     83 H83        28.4040   -1.9531   -3.5589 H         1 UNK         0.1631 
     84 H84        28.4708   -4.4850   -4.1211 H         1 UNK         0.0717 
     85 H85        29.8239   -5.0897   -5.0311 H         1 UNK         0.0717 
     86 H86        26.0903   -4.1637   -5.7700 H         1 UNK         0.0934 
     87 H87        26.8126   -2.8940   -4.8300 H         1 UNK         0.0934 
     88 H88        26.1392   -2.6040   -7.7980 H         1 UNK         0.0739 
     89 H89        24.3903   -2.1708   -5.4816 H         1 UNK         0.3093 
     90 H90        21.7824   -0.7512   -7.3477 H         1 UNK         0.0818 
     91 H91        20.4140   -2.6998   -6.6321 H         1 UNK         0.0819 
     92 H92        21.4223   -3.1348   -8.0010 H         1 UNK         0.0819 
     93 H93        21.8700   -3.6657   -6.3861 H         1 UNK         0.0819 
     94 H94        21.9480   -1.8507   -4.6890 H         1 UNK         0.3041 
     95 H95        23.4433    0.9801   -3.1606 H         1 UNK         0.0784 
     96 H96        21.0467    1.6647   -3.3857 H         1 UNK         0.0793 
     97 H97        20.5340    0.0276   -3.0005 H         1 UNK         0.0793 
     98 H98        21.3825    0.9999   -1.7971 H         1 UNK         0.0793 
     99 H99        22.4051   -1.2824   -1.9064 H         1 UNK         0.3024 
    100 H100       23.7655   -2.8050   -0.9889 H         1 UNK         0.1171 
    101 H101       24.3392   -5.0329   -1.9703 H         1 UNK         0.0786 
    102 H102       23.1492   -4.2083   -2.9630 H         1 UNK         0.0786 
    103 H103       24.8296   -4.2655   -3.4783 H         1 UNK         0.0786 
    104 H104       26.5242   -3.2378   -1.9944 H         1 UNK         0.2977 
    105 H105       25.8058   -0.4354   -4.9723 H         1 UNK         0.3127 
    106 H106       27.9509    1.2142   -5.1422 H         1 UNK         0.0770 
    107 H107       25.1105    2.2125   -4.5863 H         1 UNK         0.0814 
    108 H108       26.6127    2.8507   -3.9402 H         1 UNK         0.0814 
    109 H109       26.0430    1.2677   -3.4364 H         1 UNK         0.0814 
    110 H110       25.0810    1.4275   -7.2021 H         1 UNK         0.2983 
    111 H111       25.5934    3.8855   -8.5072 H         1 UNK         0.0947 
    112 H112       23.9279    3.0115  -10.1636 H         1 UNK         0.0806 
    113 H113       23.3888    2.7309   -8.5160 H         1 UNK         0.0806 
    114 H114       24.0604    1.4033   -9.4630 H         1 UNK         0.0806 
    115 H115       27.2357    0.8275   -8.9302 H         1 UNK         0.3000 
    116 H116       28.6311    1.8591  -11.3621 H         1 UNK         0.0850 
    117 H117       28.5738   -0.4461  -12.2809 H         1 UNK         0.0810 
    118 H118       26.9351    0.1310  -12.0347 H         1 UNK         0.0810 
    119 H119       27.6482   -1.0090  -10.8938 H         1 UNK         0.0810 
    120 H120       29.1790    1.6857   -8.3062 H         1 UNK         0.3040 
    121 H121       31.2496   -0.2948   -7.9967 H         1 UNK         0.0766 
    122 H122       29.8307    0.2695   -6.1199 H         1 UNK         0.0812 
    123 H123       30.2965    1.9758   -6.1898 H         1 UNK         0.0812 
    124 H124       31.4676    0.7485   -5.7279 H         1 UNK         0.0812 
    125 H125       32.2302    0.7829  -10.0951 H         1 UNK         0.3205 
    126 H126       34.3258    2.7872   -9.5163 H         1 UNK         0.0754 
    127 H127       34.9290    2.4138  -11.8994 H         1 UNK         0.0769 
    128 H128       33.2143    2.7561  -11.7436 H         1 UNK         0.0769 
    129 H129       33.7615    1.1024  -12.0156 H         1 UNK         0.0769 
    130 H130       34.6526    1.0043   -7.6405 H         1 UNK         0.2981 
    131 H131       36.1411   -1.3472   -8.3132 H         1 UNK         0.0541 
    132 H132       38.3708   -1.9017   -7.7611 H         1 UNK         0.3459 
    133 H133       39.5711   -0.6423   -7.6376 H         1 UNK         0.3459 
    134 H134       35.7460   -0.0432   -5.5698 H         1 UNK         0.0612 
    135 H135       36.3079   -1.6771   -5.8565 H         1 UNK         0.0612 
    136 H136       34.1525   -2.9244   -4.3756 H         1 UNK         0.0624 
    137 H137       34.2236   -1.2394   -3.9063 H         1 UNK         0.0624 
@<TRIPOS>BOND
     1    1    2 1    
     2    1   72 1    
     3    1   73 1    
     4    1   74 1    
     5    2    3 2    
     6    2    4 am   BACKBONE|DICT|INTERRES
     7    4    5 1    
     8    4   75 1    
     9    5    6 1    
    10    5   35 1    
    11    5   76 1    
    12    6    7 1    
    13    6   77 1    
    14    6   78 1    
    15    7    8 1    
    16    8    9 1    
    17    8   79 1    
    18    8   80 1    
    19    9   10 ar   
    20    9   14 ar   
    21   10   11 ar   
    22   10   81 1    
    23   11   12 ar   
    24   11   71 1    
    25   12   13 ar   
    26   12   82 1    
    27   13   14 ar   
    28   13   15 1    
    29   14   83 1    
    30   15   16 1    
    31   15   84 1    
    32   15   85 1    
    33   16   17 1    
    34   17   18 1    
    35   17   86 1    
    36   17   87 1    
    37   18   19 1    
    38   18   37 1    
    39   18   88 1    
    40   19   20 am   BACKBONE|DICT|INTERRES
    41   19   89 1    
    42   20   21 2    
    43   20   22 1    
    44   22   23 1    
    45   22   24 1    
    46   22   90 1    
    47   23   91 1    
    48   23   92 1    
    49   23   93 1    
    50   24   25 am   BACKBONE|DICT|INTERRES
    51   24   94 1    
    52   25   26 2    
    53   25   27 1    
    54   27   28 1    
    55   27   29 1    
    56   27   95 1    
    57   28   96 1    
    58   28   97 1    
    59   28   98 1    
    60   29   30 am   BACKBONE|DICT|INTERRES
    61   29   99 1    
    62   30   31 2    
    63   30   32 1    
    64   32   33 1    
    65   32   34 1    
    66   32  100 1    
    67   33  101 1    
    68   33  102 1    
    69   33  103 1    
    70   34   35 am   BACKBONE|DICT|INTERRES
    71   34  104 1    
    72   35   36 2    
    73   37   38 2    
    74   37   39 am   BACKBONE|DICT|INTERRES
    75   39   40 1    
    76   39  105 1    
    77   40   41 1    
    78   40   42 1    
    79   40  106 1    
    80   41  107 1    
    81   41  108 1    
    82   41  109 1    
    83   42   43 2    
    84   42   44 am   BACKBONE|DICT|INTERRES
    85   44   45 1    
    86   44  110 1    
    87   45   46 1    
    88   45   47 1    
    89   45  111 1    
    90   46  112 1    
    91   46  113 1    
    92   46  114 1    
    93   47   48 2    
    94   47   49 am   BACKBONE|DICT|INTERRES
    95   49   50 1    
    96   49  115 1    
    97   50   51 1    
    98   50   52 1    
    99   50  116 1    
   100   51  117 1    
   101   51  118 1    
   102   51  119 1    
   103   52   53 2    
   104   52   54 am   BACKBONE|DICT|INTERRES
   105   54   55 1    
   106   54  120 1    
   107   55   56 1    
   108   55   57 1    
   109   55  121 1    
   110   56  122 1    
   111   56  123 1    
   112   56  124 1    
   113   57   58 2    
   114   57   59 am   BACKBONE|DICT|INTERRES
   115   59   60 1    
   116   59  125 1    
   117   60   61 1    
   118   60   62 1    
   119   60  126 1    
   120   61  127 1    
   121   61  128 1    
   122   61  129 1    
   123   62   63 2    
   124   62   64 am   BACKBONE|DICT|INTERRES
   125   64   65 1    
   126   64  130 1    
   127   65   66 1    
   128   65   69 1    
   129   65  131 1    
   130   66   67 am   BACKBONE|DICT|INTERRES
   131   66   68 2    
   132   67  132 1    
   133   67  133 1    
   134   69   70 1    
   135   69  134 1    
   136   69  135 1    
   137   70   71 1    
   138   71  136 1    
   139   71  137 1    
@<TRIPOS>SUBSTRUCTURE
     1 UNK         1 GROUP             0       ****    0 ROOT    
