@<TRIPOS>MOLECULE
3R137
137   139    1
SMALL
USER_CHARGES


@<TRIPOS>ATOM
      1 CA         28.3505   -1.8469    1.1562 C.3       0 UNK        -0.2020 
      2 C          28.0327   -2.0385   -0.3185 C.2       0 UNK         0.4855 
      3 O          27.9804   -1.0635   -1.0649 O.2       0 UNK        -0.5197 
      4 N          27.8216   -3.2889   -0.7478 N.am      1 UNK        -0.4892 
      5 CA         27.5395   -3.6628   -2.1426 C.3       1 UNK         0.0835 
      6 C6         28.0062   -5.1040   -2.4623 C.3       12 UNK        -0.0855 
      7 S7         29.7908   -5.3442   -2.1354 S.3       12 UNK        -0.2931 
      8 C8         30.5337   -4.7909   -3.7069 C.3       12 UNK         0.0378 
      9 C9         31.5081   -3.6302   -3.5275 C.ar      12 UNK        -0.0802 
     10 C10        32.8254   -3.7401   -3.9834 C.ar      12 UNK        -0.0944 
     11 C11        33.7056   -2.6537   -3.9028 C.ar      12 UNK        -0.0787 
     12 C12        33.2592   -1.4536   -3.3390 C.ar      12 UNK        -0.0862 
     13 C13        31.9473   -1.3302   -2.8706 C.ar      12 UNK        -0.0733 
     14 C14        31.0862   -2.4249   -2.9593 C.ar      12 UNK        -0.0832 
     15 C15        31.4658   -0.0268   -2.2439 C.3       12 UNK         0.0240 
     16 S16        30.7817    1.1336   -3.4744 S.3       12 UNK        -0.2522 
     17 C17        29.0726    0.5298   -3.6969 C.3       12 UNK        -0.0967 
     18 CA         28.5573    0.7093   -5.1467 C.3       5 UNK         0.0660 
     19 N          27.5119   -0.2629   -5.4811 N.am      5 UNK        -0.4015 
     20 C          27.1757   -0.5914   -6.7352 C.2       4 UNK         0.4946 
     21 O          27.7577   -0.1649   -7.7339 O.2       4 UNK        -0.5353 
     22 CA         25.9922   -1.5521   -6.9211 C.3       4 UNK         0.0277 
     23 CB         26.4877   -3.0054   -6.9758 C.3       4 UNK        -0.1981 
     24 N          24.9338   -1.4135   -5.9122 N.am      4 UNK        -0.4209 
     25 C          24.1679   -0.3177   -5.7813 C.2       3 UNK         0.4942 
     26 O          24.3816    0.7275   -6.3930 O.2       3 UNK        -0.5208 
     27 CA         22.9520   -0.3754   -4.8396 C.3       3 UNK         0.0250 
     28 CB         21.6619   -0.5623   -5.6542 C.3       3 UNK        -0.1990 
     29 N          23.0355   -1.4277   -3.8267 N.am      3 UNK        -0.4232 
     30 C          23.8080   -1.3599   -2.7360 C.2       2 UNK         0.4993 
     31 O          24.5109   -0.3848   -2.4637 O.2       2 UNK        -0.5286 
     32 CA         23.8322   -2.5859   -1.7990 C.3       2 UNK         0.0209 
     33 CB         22.9156   -3.7524   -2.2378 C.3       2 UNK        -0.1931 
     34 N          25.2079   -3.0552   -1.5994 N.am      2 UNK        -0.4546 
     35 C          26.0740   -3.4211   -2.5575 C.2       1 UNK         0.5154 
     36 O          25.7660   -3.5311   -3.7457 O.2       1 UNK        -0.5181 
     37 C          28.0821    2.1503   -5.4277 C.2       5 UNK         0.5014 
     38 O          28.8447    2.9428   -5.9808 O.2       5 UNK        -0.5248 
     39 N          26.8184    2.4520   -5.0886 N.am      6 UNK        -0.4434 
     40 CA         26.1762    3.7487   -5.3285 C.3       6 UNK         0.0363 
     41 CB         24.8427    3.8122   -4.5661 C.3       6 UNK        -0.1936 
     42 C          25.9630    4.0391   -6.8241 C.2       6 UNK         0.5081 
     43 O          26.1770    5.1697   -7.2612 O.2       6 UNK        -0.5248 
     44 N          25.5759    3.0066   -7.5845 N.am      7 UNK        -0.4718 
     45 CA         25.4171    3.0439   -9.0408 C.3       7 UNK         0.0273 
     46 CB         24.5704    1.8345   -9.4729 C.3       7 UNK        -0.1935 
     47 C          26.7515    3.0558   -9.8106 C.2       7 UNK         0.5018 
     48 O          26.7355    3.3024  -11.0171 O.2       7 UNK        -0.5186 
     49 N          27.8636    2.7618   -9.1183 N.am      8 UNK        -0.4240 
     50 CA         29.2247    2.5897   -9.6416 C.3       8 UNK         0.0235 
     51 CB         29.7774    3.9145  -10.2092 C.3       8 UNK        -0.2000 
     52 C          29.3448    1.4090  -10.6271 C.2       8 UNK         0.4941 
     53 O          30.1524    1.4580  -11.5571 O.2       8 UNK        -0.5273 
     54 N          28.5426    0.3620  -10.3935 N.am      9 UNK        -0.4262 
     55 CA         28.6346   -0.9316  -11.0684 C.3       9 UNK         0.0264 
     56 CB         27.2636   -1.6264  -11.0307 C.3       9 UNK        -0.1955 
     57 C          29.7113   -1.8054  -10.4061 C.2       9 UNK         0.5031 
     58 O          30.4318   -2.5175  -11.1073 O.2       9 UNK        -0.5390 
     59 N          29.8146   -1.7114   -9.0734 N.am      10 UNK        -0.4204 
     60 CA         30.9074   -2.2653   -8.2777 C.3       10 UNK         0.0237 
     61 CB         30.3831   -2.5933   -6.8690 C.3       10 UNK        -0.1985 
     62 C          32.0834   -1.2749   -8.2114 C.2       10 UNK         0.4970 
     63 O          31.9606   -0.1271   -8.6449 O.2       10 UNK        -0.4914 
     64 N          33.1969   -1.7398   -7.6370 N.am      11 UNK        -0.4285 
     65 CA         34.4455   -0.9926   -7.4072 C.3       11 UNK         0.1007 
     66 C          34.3695    0.2220   -6.4310 C.2       11 UNK         0.5703 
     67 N          33.2267    0.5440   -5.8435 N.am      11 UNK        -0.7361 
     68 O          35.3702    0.9030   -6.2191 O.2       11 UNK        -0.4986 
     69 C69        35.6387   -1.9453   -7.0908 C.3       12 UNK        -0.0947 
     70 S70        35.2486   -3.4294   -6.0952 S.3       12 UNK        -0.2240 
     71 C71        35.1452   -2.7875   -4.3915 C.3       12 UNK         0.0194 
     72 H72        29.3267   -1.3760    1.2694 H         1 UNK         0.0906 
     73 H73        27.6050   -1.2011    1.6196 H         1 UNK         0.0906 
     74 H74        28.3653   -2.7927    1.6975 H         1 UNK         0.0906 
     75 H75        27.8969   -4.0594   -0.0977 H         1 UNK         0.3140 
     76 H76        28.0954   -2.9952   -2.7987 H         1 UNK         0.1085 
     77 H77        27.7953   -5.3653   -3.5014 H         1 UNK         0.0836 
     78 H78        27.4505   -5.8227   -1.8572 H         1 UNK         0.0836 
     79 H79        29.7584   -4.4826   -4.4091 H         1 UNK         0.0731 
     80 H80        31.0331   -5.6450   -4.1668 H         1 UNK         0.0731 
     81 H81        33.1660   -4.6695   -4.4192 H         1 UNK         0.1312 
     82 H82        33.9322   -0.6102   -3.2657 H         1 UNK         0.1406 
     83 H83        30.0859   -2.3338   -2.5743 H         1 UNK         0.1631 
     84 H84        32.2997    0.4606   -1.7367 H         1 UNK         0.0717 
     85 H85        30.7198   -0.2237   -1.4721 H         1 UNK         0.0717 
     86 H86        29.0590   -0.5282   -3.4434 H         1 UNK         0.0934 
     87 H87        28.4182    1.0130   -2.9683 H         1 UNK         0.0934 
     88 H88        29.3950    0.5186   -5.8216 H         1 UNK         0.0739 
     89 H89        26.9802   -0.6570   -4.7185 H         1 UNK         0.3093 
     90 H90        25.5423   -1.3182   -7.8883 H         1 UNK         0.0818 
     91 H91        27.1900   -3.1461   -7.7985 H         1 UNK         0.0819 
     92 H92        27.0013   -3.2952   -6.0588 H         1 UNK         0.0819 
     93 H93        25.6644   -3.7020   -7.1338 H         1 UNK         0.0819 
     94 H94        24.7501   -2.2202   -5.3279 H         1 UNK         0.3041 
     95 H95        22.8921    0.5897   -4.3314 H         1 UNK         0.0784 
     96 H96        21.5541    0.2265   -6.4005 H         1 UNK         0.0793 
     97 H97        21.6519   -1.5154   -6.1846 H         1 UNK         0.0793 
     98 H98        20.7793   -0.5227   -5.0154 H         1 UNK         0.0793 
     99 H99        22.4974   -2.2668   -3.9888 H         1 UNK         0.3024 
    100 H100       23.4768   -2.2296   -0.8306 H         1 UNK         0.1171 
    101 H101       22.9578   -4.5696   -1.5176 H         1 UNK         0.0786 
    102 H102       21.8727   -3.4377   -2.2946 H         1 UNK         0.0786 
    103 H103       23.1966   -4.1610   -3.2091 H         1 UNK         0.0786 
    104 H104       25.5778   -2.9538   -0.6648 H         1 UNK         0.2977 
    105 H105       26.2398    1.7339   -4.6780 H         1 UNK         0.3127 
    106 H106       26.8330    4.5257   -4.9312 H         1 UNK         0.0770 
    107 H107       24.1421    3.0497   -4.9085 H         1 UNK         0.0814 
    108 H108       24.3615    4.7812   -4.7056 H         1 UNK         0.0814 
    109 H109       24.9902    3.6762   -3.4946 H         1 UNK         0.0814 
    110 H110       25.3329    2.1297   -7.1260 H         1 UNK         0.2983 
    111 H111       24.8791    3.9565   -9.3066 H         1 UNK         0.0947 
    112 H112       24.3885    1.8452  -10.5484 H         1 UNK         0.0806 
    113 H113       23.5979    1.8343   -8.9801 H         1 UNK         0.0806 
    114 H114       25.0657    0.8923   -9.2344 H         1 UNK         0.0806 
    115 H115       27.7563    2.5798   -8.1290 H         1 UNK         0.3000 
    116 H116       29.8414    2.3195   -8.7824 H         1 UNK         0.0850 
    117 H117       30.8355    3.8208  -10.4566 H         1 UNK         0.0810 
    118 H118       29.6855    4.7240   -9.4851 H         1 UNK         0.0810 
    119 H119       29.2573    4.2153  -11.1190 H         1 UNK         0.0810 
    120 H120       27.9671    0.3918   -9.5565 H         1 UNK         0.3040 
    121 H121       28.9137   -0.7757  -12.1127 H         1 UNK         0.0766 
    122 H122       26.5023   -1.0247  -11.5276 H         1 UNK         0.0812 
    123 H123       26.9293   -1.8116  -10.0098 H         1 UNK         0.0812 
    124 H124       27.3016   -2.5892  -11.5419 H         1 UNK         0.0812 
    125 H125       29.1873   -1.0722   -8.5927 H         1 UNK         0.3205 
    126 H126       31.2617   -3.1885   -8.7415 H         1 UNK         0.0754 
    127 H127       31.1480   -3.0958   -6.2785 H         1 UNK         0.0769 
    128 H128       29.5247   -3.2629   -6.9100 H         1 UNK         0.0769 
    129 H129       30.0878   -1.6983   -6.3223 H         1 UNK         0.0769 
    130 H130       33.2055   -2.6832   -7.2769 H         1 UNK         0.2981 
    131 H131       34.6796   -0.5238   -8.3648 H         1 UNK         0.0541 
    132 H132       32.3957    0.0049   -6.0162 H         1 UNK         0.3459 
    133 H133       33.1923    1.3374   -5.2247 H         1 UNK         0.3459 
    134 H134       36.4808   -1.4211   -6.6353 H         1 UNK         0.0612 
    135 H135       36.0298   -2.3216   -8.0372 H         1 UNK         0.0612 
    136 H136       35.6755   -1.8364   -4.3232 H         1 UNK         0.0624 
    137 H137       35.6692   -3.4786   -3.7303 H         1 UNK         0.0624 
@<TRIPOS>BOND
     1    1    2 1    
     2    1   72 1    
     3    1   73 1    
     4    1   74 1    
     5    2    3 2    
     6    2    4 am   BACKBONE|DICT|INTERRES
     7    4    5 1    
     8    4   75 1    
     9    5    6 1    
    10    5   35 1    
    11    5   76 1    
    12    6    7 1    
    13    6   77 1    
    14    6   78 1    
    15    7    8 1    
    16    8    9 1    
    17    8   79 1    
    18    8   80 1    
    19    9   10 ar   
    20    9   14 ar   
    21   10   11 ar   
    22   10   81 1    
    23   11   12 ar   
    24   11   71 1    
    25   12   13 ar   
    26   12   82 1    
    27   13   14 ar   
    28   13   15 1    
    29   14   83 1    
    30   15   16 1    
    31   15   84 1    
    32   15   85 1    
    33   16   17 1    
    34   17   18 1    
    35   17   86 1    
    36   17   87 1    
    37   18   19 1    
    38   18   37 1    
    39   18   88 1    
    40   19   20 am   BACKBONE|DICT|INTERRES
    41   19   89 1    
    42   20   21 2    
    43   20   22 1    
    44   22   23 1    
    45   22   24 1    
    46   22   90 1    
    47   23   91 1    
    48   23   92 1    
    49   23   93 1    
    50   24   25 am   BACKBONE|DICT|INTERRES
    51   24   94 1    
    52   25   26 2    
    53   25   27 1    
    54   27   28 1    
    55   27   29 1    
    56   27   95 1    
    57   28   96 1    
    58   28   97 1    
    59   28   98 1    
    60   29   30 am   BACKBONE|DICT|INTERRES
    61   29   99 1    
    62   30   31 2    
    63   30   32 1    
    64   32   33 1    
    65   32   34 1    
    66   32  100 1    
    67   33  101 1    
    68   33  102 1    
    69   33  103 1    
    70   34   35 am   BACKBONE|DICT|INTERRES
    71   34  104 1    
    72   35   36 2    
    73   37   38 2    
    74   37   39 am   BACKBONE|DICT|INTERRES
    75   39   40 1    
    76   39  105 1    
    77   40   41 1    
    78   40   42 1    
    79   40  106 1    
    80   41  107 1    
    81   41  108 1    
    82   41  109 1    
    83   42   43 2    
    84   42   44 am   BACKBONE|DICT|INTERRES
    85   44   45 1    
    86   44  110 1    
    87   45   46 1    
    88   45   47 1    
    89   45  111 1    
    90   46  112 1    
    91   46  113 1    
    92   46  114 1    
    93   47   48 2    
    94   47   49 am   BACKBONE|DICT|INTERRES
    95   49   50 1    
    96   49  115 1    
    97   50   51 1    
    98   50   52 1    
    99   50  116 1    
   100   51  117 1    
   101   51  118 1    
   102   51  119 1    
   103   52   53 2    
   104   52   54 am   BACKBONE|DICT|INTERRES
   105   54   55 1    
   106   54  120 1    
   107   55   56 1    
   108   55   57 1    
   109   55  121 1    
   110   56  122 1    
   111   56  123 1    
   112   56  124 1    
   113   57   58 2    
   114   57   59 am   BACKBONE|DICT|INTERRES
   115   59   60 1    
   116   59  125 1    
   117   60   61 1    
   118   60   62 1    
   119   60  126 1    
   120   61  127 1    
   121   61  128 1    
   122   61  129 1    
   123   62   63 2    
   124   62   64 am   BACKBONE|DICT|INTERRES
   125   64   65 1    
   126   64  130 1    
   127   65   66 1    
   128   65   69 1    
   129   65  131 1    
   130   66   67 am   BACKBONE|DICT|INTERRES
   131   66   68 2    
   132   67  132 1    
   133   67  133 1    
   134   69   70 1    
   135   69  134 1    
   136   69  135 1    
   137   70   71 1    
   138   71  136 1    
   139   71  137 1    
@<TRIPOS>SUBSTRUCTURE
     1 UNK         1 GROUP             0       ****    0 ROOT    
