@<TRIPOS>MOLECULE
3R137
137   139    1
SMALL
USER_CHARGES


@<TRIPOS>ATOM
      1 CA         31.7779    0.3921   -0.8155 C.3       0 UNK        -0.2020 
      2 C          30.5305   -0.4283   -0.5223 C.2       0 UNK         0.4855 
      3 O          30.1660   -0.5888    0.6430 O.2       0 UNK        -0.5197 
      4 N          29.8844   -0.9513   -1.5726 N.am      1 UNK        -0.4892 
      5 CA         28.6346   -1.7225   -1.5283 C.3       1 UNK         0.0835 
      6 C6         28.7606   -3.0430   -0.7106 C.3       12 UNK        -0.0855 
      7 S7         27.8390   -4.4176   -1.4829 S.3       12 UNK        -0.2931 
      8 C8         29.1816   -5.3672   -2.2732 C.3       12 UNK         0.0378 
      9 C9         29.7184   -4.6769   -3.5211 C.ar      12 UNK        -0.0802 
     10 C10        30.7496   -3.7370   -3.4204 C.ar      12 UNK        -0.0944 
     11 C11        31.2470   -3.1023   -4.5607 C.ar      12 UNK        -0.0787 
     12 C12        30.7170   -3.4296   -5.8105 C.ar      12 UNK        -0.0862 
     13 C13        29.6894   -4.3694   -5.9350 C.ar      12 UNK        -0.0733 
     14 C14        29.1995   -4.9959   -4.7811 C.ar      12 UNK        -0.0832 
     15 C15        29.1755   -4.7051   -7.3360 C.3       12 UNK         0.0240 
     16 S16        27.4309   -5.2378   -7.4517 S.3       12 UNK        -0.2522 
     17 C17        26.5111   -3.8770   -6.6612 C.3       12 UNK        -0.0967 
     18 CA         26.2299   -2.6704   -7.5992 C.3       5 UNK         0.0660 
     19 N          24.9086   -2.0983   -7.3294 N.am      5 UNK        -0.4015 
     20 C          24.3900   -0.9848   -7.8657 C.2       4 UNK         0.4946 
     21 O          24.8915   -0.3835   -8.8157 O.2       4 UNK        -0.5353 
     22 CA         23.1374   -0.4002   -7.1809 C.3       4 UNK         0.0277 
     23 CB         21.8919   -0.6447   -8.0474 C.3       4 UNK        -0.1981 
     24 N          22.8853   -0.8931   -5.8160 N.am      4 UNK        -0.4209 
     25 C          23.7307   -0.8130   -4.7765 C.2       3 UNK         0.4942 
     26 O          24.8600   -0.3166   -4.8416 O.2       3 UNK        -0.5208 
     27 CA         23.2666   -1.4738   -3.4740 C.3       3 UNK         0.0250 
     28 CB         23.2207   -3.0088   -3.6241 C.3       3 UNK        -0.1990 
     29 N          24.1959   -1.1100   -2.4090 N.am      3 UNK        -0.4232 
     30 C          23.9608   -1.1973   -1.0958 C.2       2 UNK         0.4993 
     31 O          22.8927   -1.5872   -0.6197 O.2       2 UNK        -0.5286 
     32 CA         25.1257   -0.8115   -0.1692 C.3       2 UNK         0.0209 
     33 CB         24.8671   -1.1910    1.3019 C.3       2 UNK        -0.1931 
     34 N          26.3599   -1.4640   -0.6143 N.am      2 UNK        -0.4546 
     35 C          27.4257   -0.8398   -1.1290 C.2       1 UNK         0.5154 
     36 O          27.4626    0.3779   -1.3224 O.2       1 UNK        -0.5181 
     37 C          27.3473   -1.6118   -7.4744 C.2       5 UNK         0.5014 
     38 O          28.1768   -1.4949   -8.3754 O.2       5 UNK        -0.5248 
     39 N          27.3163   -0.8253   -6.3871 N.am      6 UNK        -0.4434 
     40 CA         28.2853    0.2375   -6.1235 C.3       6 UNK         0.0363 
     41 CB         28.2091    0.6611   -4.6518 C.3       6 UNK        -0.1936 
     42 C          28.1032    1.4538   -7.0379 C.2       6 UNK         0.5081 
     43 O          29.0959    2.0846   -7.3917 O.2       6 UNK        -0.5248 
     44 N          26.8585    1.7530   -7.4346 N.am      7 UNK        -0.4718 
     45 CA         26.5506    2.8135   -8.3993 C.3       7 UNK         0.0273 
     46 CB         25.0362    3.0764   -8.4299 C.3       7 UNK        -0.1935 
     47 C          27.0875    2.4908   -9.8047 C.2       7 UNK         0.5018 
     48 O          27.5618    3.3954  -10.4925 O.2       7 UNK        -0.5186 
     49 N          27.0295    1.2080  -10.1877 N.am      8 UNK        -0.4240 
     50 CA         27.6083    0.6858  -11.4234 C.3       8 UNK         0.0235 
     51 CB         26.9844   -0.6834  -11.7421 C.3       8 UNK        -0.2000 
     52 C          29.1430    0.5911  -11.3601 C.2       8 UNK         0.4941 
     53 O          29.8142    1.0695  -12.2753 O.2       8 UNK        -0.5273 
     54 N          29.6704   -0.0455  -10.3048 N.am      9 UNK        -0.4262 
     55 CA         31.0918   -0.3793  -10.1726 C.3       9 UNK         0.0264 
     56 CB         31.2350   -1.5686   -9.2114 C.3       9 UNK        -0.1955 
     57 C          31.9855    0.7731   -9.6893 C.2       9 UNK         0.5031 
     58 O          33.2008    0.6843   -9.8674 O.2       9 UNK        -0.5390 
     59 N          31.4100    1.7821   -9.0201 N.am      10 UNK        -0.4204 
     60 CA         32.0538    2.9174   -8.3366 C.3       10 UNK         0.0237 
     61 CB         32.9237    3.7535   -9.2969 C.3       10 UNK        -0.1985 
     62 C          32.8286    2.5427   -7.0555 C.2       10 UNK         0.4970 
     63 O          32.9102    3.3749   -6.1515 O.2       10 UNK        -0.4914 
     64 N          33.3720    1.3196   -6.9930 N.am      11 UNK        -0.4285 
     65 CA         34.1385    0.7391   -5.8751 C.3       11 UNK         0.1007 
     66 C          35.5248    1.4091   -5.6236 C.2       11 UNK         0.5703 
     67 N          36.0687    2.1763   -6.5615 N.am      11 UNK        -0.7361 
     68 O          36.1390    1.2053   -4.5787 O.2       11 UNK        -0.4986 
     69 C69        33.3060    0.5694   -4.5681 C.3       12 UNK        -0.0947 
     70 S70        31.7755   -0.3974   -4.7964 S.3       12 UNK        -0.2240 
     71 C71        32.3708   -2.0812   -4.4516 C.3       12 UNK         0.0194 
     72 H72        32.6653   -0.1361   -0.4682 H         1 UNK         0.0906 
     73 H73        31.7270    1.3504   -0.2994 H         1 UNK         0.0906 
     74 H74        31.8939    0.5913   -1.8799 H         1 UNK         0.0906 
     75 H75        30.2316   -0.7564   -2.5019 H         1 UNK         0.3140 
     76 H76        28.4525   -1.9947   -2.5689 H         1 UNK         0.1085 
     77 H77        28.4306   -2.9145    0.3223 H         1 UNK         0.0836 
     78 H78        29.8054   -3.3404   -0.6206 H         1 UNK         0.0836 
     79 H79        29.9870   -5.5391   -1.5573 H         1 UNK         0.0731 
     80 H80        28.7999   -6.3555   -2.5341 H         1 UNK         0.0731 
     81 H81        31.1684   -3.4989   -2.4531 H         1 UNK         0.1312 
     82 H82        31.1174   -2.9520   -6.6919 H         1 UNK         0.1406 
     83 H83        28.4152   -5.7361   -4.8596 H         1 UNK         0.1631 
     84 H84        29.3122   -3.8513   -7.9993 H         1 UNK         0.0717 
     85 H85        29.7993   -5.5020   -7.7423 H         1 UNK         0.0717 
     86 H86        25.5693   -4.3283   -6.3445 H         1 UNK         0.0934 
     87 H87        26.9954   -3.5766   -5.7301 H         1 UNK         0.0934 
     88 H88        26.2090   -3.0115   -8.6363 H         1 UNK         0.0739 
     89 H89        24.3946   -2.5164   -6.5697 H         1 UNK         0.3093 
     90 H90        23.2948    0.6776   -7.1073 H         1 UNK         0.0818 
     91 H91        21.0164   -0.1404   -7.6378 H         1 UNK         0.0819 
     92 H92        22.0381   -0.2614   -9.0586 H         1 UNK         0.0819 
     93 H93        21.6606   -1.7072   -8.1326 H         1 UNK         0.0819 
     94 H94        21.9856   -1.3275   -5.6640 H         1 UNK         0.3041 
     95 H95        22.2731   -1.0915   -3.2300 H         1 UNK         0.0784 
     96 H96        22.5352   -3.3151   -4.4150 H         1 UNK         0.0793 
     97 H97        24.2032   -3.4191   -3.8620 H         1 UNK         0.0793 
     98 H98        22.8769   -3.4880   -2.7073 H         1 UNK         0.0793 
     99 H99        25.0725   -0.7250   -2.7405 H         1 UNK         0.3024 
    100 H100       25.2205    0.2756   -0.2221 H         1 UNK         0.1171 
    101 H101       25.7006   -0.8937    1.9386 H         1 UNK         0.0786 
    102 H102       23.9757   -0.6925    1.6852 H         1 UNK         0.0786 
    103 H103       24.7200   -2.2650    1.4225 H         1 UNK         0.0786 
    104 H104       26.3831   -2.4740   -0.5498 H         1 UNK         0.2977 
    105 H105       26.5381   -0.8989   -5.7384 H         1 UNK         0.3127 
    106 H106       29.2824   -0.1646   -6.3126 H         1 UNK         0.0770 
    107 H107       27.2241    1.0468   -4.3862 H         1 UNK         0.0814 
    108 H108       28.9384    1.4418   -4.4311 H         1 UNK         0.0814 
    109 H109       28.4310   -0.1778   -3.9983 H         1 UNK         0.0814 
    110 H110       26.0947    1.1726   -7.1198 H         1 UNK         0.2983 
    111 H111       27.0453    3.7267   -8.0603 H         1 UNK         0.0947 
    112 H112       24.8050    3.9205   -9.0809 H         1 UNK         0.0806 
    113 H113       24.6534    3.3186   -7.4384 H         1 UNK         0.0806 
    114 H114       24.4795    2.2187   -8.8068 H         1 UNK         0.0806 
    115 H115       26.5586    0.5448   -9.5797 H         1 UNK         0.3000 
    116 H116       27.3506    1.3686  -12.2362 H         1 UNK         0.0850 
    117 H117       25.9044   -0.6046  -11.8689 H         1 UNK         0.0810 
    118 H118       27.1722   -1.4110  -10.9516 H         1 UNK         0.0810 
    119 H119       27.3915   -1.0927  -12.6676 H         1 UNK         0.0810 
    120 H120       29.0462   -0.4487   -9.6066 H         1 UNK         0.3040 
    121 H121       31.4653   -0.6908  -11.1506 H         1 UNK         0.0766 
    122 H122       30.6594   -2.4283   -9.5542 H         1 UNK         0.0812 
    123 H123       30.8882   -1.3049   -8.2119 H         1 UNK         0.0812 
    124 H124       32.2749   -1.8870   -9.1257 H         1 UNK         0.0812 
    125 H125       30.4139    1.7143   -8.8295 H         1 UNK         0.3205 
    126 H126       31.2322    3.5579   -8.0129 H         1 UNK         0.0754 
    127 H127       33.8064    3.2097   -9.6337 H         1 UNK         0.0769 
    128 H128       33.2747    4.6629   -8.8074 H         1 UNK         0.0769 
    129 H129       32.3593    4.0574  -10.1785 H         1 UNK         0.0769 
    130 H130       33.3187    0.7534   -7.8312 H         1 UNK         0.2981 
    131 H131       34.3944   -0.2657   -6.2118 H         1 UNK         0.0541 
    132 H132       35.5866    2.3403   -7.4303 H         1 UNK         0.3459 
    133 H133       36.9701    2.5950   -6.3950 H         1 UNK         0.3459 
    134 H134       33.0312    1.5449   -4.1648 H         1 UNK         0.0612 
    135 H135       33.8993    0.0843   -3.7912 H         1 UNK         0.0612 
    136 H136       32.8181   -2.1072   -3.4567 H         1 UNK         0.0624 
    137 H137       33.1626   -2.3359   -5.1574 H         1 UNK         0.0624 
@<TRIPOS>BOND
     1    1    2 1    
     2    1   72 1    
     3    1   73 1    
     4    1   74 1    
     5    2    3 2    
     6    2    4 am   BACKBONE|DICT|INTERRES
     7    4    5 1    
     8    4   75 1    
     9    5    6 1    
    10    5   35 1    
    11    5   76 1    
    12    6    7 1    
    13    6   77 1    
    14    6   78 1    
    15    7    8 1    
    16    8    9 1    
    17    8   79 1    
    18    8   80 1    
    19    9   10 ar   
    20    9   14 ar   
    21   10   11 ar   
    22   10   81 1    
    23   11   12 ar   
    24   11   71 1    
    25   12   13 ar   
    26   12   82 1    
    27   13   14 ar   
    28   13   15 1    
    29   14   83 1    
    30   15   16 1    
    31   15   84 1    
    32   15   85 1    
    33   16   17 1    
    34   17   18 1    
    35   17   86 1    
    36   17   87 1    
    37   18   19 1    
    38   18   37 1    
    39   18   88 1    
    40   19   20 am   BACKBONE|DICT|INTERRES
    41   19   89 1    
    42   20   21 2    
    43   20   22 1    
    44   22   23 1    
    45   22   24 1    
    46   22   90 1    
    47   23   91 1    
    48   23   92 1    
    49   23   93 1    
    50   24   25 am   BACKBONE|DICT|INTERRES
    51   24   94 1    
    52   25   26 2    
    53   25   27 1    
    54   27   28 1    
    55   27   29 1    
    56   27   95 1    
    57   28   96 1    
    58   28   97 1    
    59   28   98 1    
    60   29   30 am   BACKBONE|DICT|INTERRES
    61   29   99 1    
    62   30   31 2    
    63   30   32 1    
    64   32   33 1    
    65   32   34 1    
    66   32  100 1    
    67   33  101 1    
    68   33  102 1    
    69   33  103 1    
    70   34   35 am   BACKBONE|DICT|INTERRES
    71   34  104 1    
    72   35   36 2    
    73   37   38 2    
    74   37   39 am   BACKBONE|DICT|INTERRES
    75   39   40 1    
    76   39  105 1    
    77   40   41 1    
    78   40   42 1    
    79   40  106 1    
    80   41  107 1    
    81   41  108 1    
    82   41  109 1    
    83   42   43 2    
    84   42   44 am   BACKBONE|DICT|INTERRES
    85   44   45 1    
    86   44  110 1    
    87   45   46 1    
    88   45   47 1    
    89   45  111 1    
    90   46  112 1    
    91   46  113 1    
    92   46  114 1    
    93   47   48 2    
    94   47   49 am   BACKBONE|DICT|INTERRES
    95   49   50 1    
    96   49  115 1    
    97   50   51 1    
    98   50   52 1    
    99   50  116 1    
   100   51  117 1    
   101   51  118 1    
   102   51  119 1    
   103   52   53 2    
   104   52   54 am   BACKBONE|DICT|INTERRES
   105   54   55 1    
   106   54  120 1    
   107   55   56 1    
   108   55   57 1    
   109   55  121 1    
   110   56  122 1    
   111   56  123 1    
   112   56  124 1    
   113   57   58 2    
   114   57   59 am   BACKBONE|DICT|INTERRES
   115   59   60 1    
   116   59  125 1    
   117   60   61 1    
   118   60   62 1    
   119   60  126 1    
   120   61  127 1    
   121   61  128 1    
   122   61  129 1    
   123   62   63 2    
   124   62   64 am   BACKBONE|DICT|INTERRES
   125   64   65 1    
   126   64  130 1    
   127   65   66 1    
   128   65   69 1    
   129   65  131 1    
   130   66   67 am   BACKBONE|DICT|INTERRES
   131   66   68 2    
   132   67  132 1    
   133   67  133 1    
   134   69   70 1    
   135   69  134 1    
   136   69  135 1    
   137   70   71 1    
   138   71  136 1    
   139   71  137 1    
@<TRIPOS>SUBSTRUCTURE
     1 UNK         1 GROUP             0       ****    0 ROOT    
