@<TRIPOS>MOLECULE
3R137
137   139    1
SMALL
USER_CHARGES


@<TRIPOS>ATOM
      1 CA         26.2654   -5.3281   -7.3903 C.3       0 UNK        -0.2020 
      2 C          26.1186   -5.1803   -5.8837 C.2       0 UNK         0.4855 
      3 O          25.0094   -4.9699   -5.3929 O.2       0 UNK        -0.5197 
      4 N          27.2365   -5.2742   -5.1517 N.am      1 UNK        -0.4892 
      5 CA         27.3443   -5.1418   -3.6934 C.3       1 UNK         0.0835 
      6 C6         28.8036   -5.4066   -3.2515 C.3       12 UNK        -0.0855 
      7 S7         29.0170   -5.5228   -1.4434 S.3       12 UNK        -0.2931 
      8 C8         30.6911   -4.8304   -1.2392 C.3       12 UNK         0.0378 
      9 C9         30.7336   -3.3297   -1.4961 C.ar      12 UNK        -0.0802 
     10 C10        31.2893   -2.8244   -2.6763 C.ar      12 UNK        -0.0944 
     11 C11        31.3398   -1.4461   -2.9012 C.ar      12 UNK        -0.0787 
     12 C12        30.8611   -0.5715   -1.9231 C.ar      12 UNK        -0.0862 
     13 C13        30.2573   -1.0625   -0.7605 C.ar      12 UNK        -0.0733 
     14 C14        30.2126   -2.4441   -0.5483 C.ar      12 UNK        -0.0832 
     15 C15        29.6265   -0.1242    0.2675 C.3       12 UNK         0.0240 
     16 S16        28.7004    1.2862   -0.4442 S.3       12 UNK        -0.2522 
     17 C17        27.6601    0.5118   -1.7327 C.3       12 UNK        -0.0967 
     18 CA         28.0460    1.0215   -3.1491 C.3       5 UNK         0.0660 
     19 N          27.9775   -0.0378   -4.1636 N.am      5 UNK        -0.4015 
     20 C          28.4126    0.0783   -5.4277 C.2       4 UNK         0.4946 
     21 O          29.0163    1.0609   -5.8535 O.2       4 UNK        -0.5353 
     22 CA         28.0347   -1.0470   -6.4060 C.3       4 UNK         0.0277 
     23 CB         29.0410   -2.2075   -6.3622 C.3       4 UNK        -0.1981 
     24 N          26.6791   -1.5394   -6.1527 N.am      4 UNK        -0.4209 
     25 C          25.5721   -0.8244   -6.4017 C.2       3 UNK         0.4942 
     26 O          25.5899    0.2776   -6.9469 O.2       3 UNK        -0.5208 
     27 CA         24.2315   -1.4012   -5.9178 C.3       3 UNK         0.0250 
     28 CB         23.5854   -2.2774   -7.0014 C.3       3 UNK        -0.1990 
     29 N          24.3700   -2.1558   -4.6692 N.am      3 UNK        -0.4232 
     30 C          24.6209   -1.5813   -3.4820 C.2       2 UNK         0.4993 
     31 O          24.7000   -0.3639   -3.3211 O.2       2 UNK        -0.5286 
     32 CA         24.8942   -2.5119   -2.2862 C.3       2 UNK         0.0209 
     33 CB         23.5824   -2.8734   -1.5726 C.3       2 UNK        -0.1931 
     34 N          25.6085   -3.7389   -2.6542 N.am      2 UNK        -0.4546 
     35 C          26.8207   -3.7660   -3.2256 C.2       1 UNK         0.5154 
     36 O          27.4777   -2.7506   -3.4592 O.2       1 UNK        -0.5181 
     37 C          27.2435    2.2798   -3.5524 C.2       5 UNK         0.5014 
     38 O          27.7065    3.3976   -3.3221 O.2       5 UNK        -0.5248 
     39 N          26.0891    2.0786   -4.2044 N.am      6 UNK        -0.4434 
     40 CA         25.2692    3.1215   -4.8311 C.3       6 UNK         0.0363 
     41 CB         23.8289    2.6026   -4.9842 C.3       6 UNK        -0.1936 
     42 C          25.8224    3.6372   -6.1805 C.2       6 UNK         0.5081 
     43 O          25.1544    4.4499   -6.8209 O.2       6 UNK        -0.5248 
     44 N          27.0173    3.1812   -6.5864 N.am      7 UNK        -0.4718 
     45 CA         27.7810    3.5767   -7.7743 C.3       7 UNK         0.0273 
     46 CB         28.1072    5.0864   -7.7609 C.3       7 UNK        -0.1935 
     47 C          27.1820    3.0978   -9.1100 C.2       7 UNK         0.5018 
     48 O          27.4372    3.7215  -10.1420 O.2       7 UNK        -0.5186 
     49 N          26.4496    1.9728   -9.0994 N.am      8 UNK        -0.4240 
     50 CA         26.0147    1.2738  -10.3175 C.3       8 UNK         0.0235 
     51 CB         24.7948    0.3910  -10.0047 C.3       8 UNK        -0.2000 
     52 C          27.1385    0.4314  -10.9570 C.2       8 UNK         0.4941 
     53 O          26.9620   -0.0499  -12.0771 O.2       8 UNK        -0.5273 
     54 N          28.2624    0.2644  -10.2493 N.am      9 UNK        -0.4262 
     55 CA         29.4814   -0.3987  -10.6988 C.3       9 UNK         0.0264 
     56 CB         29.4771   -1.8630  -10.2269 C.3       9 UNK        -0.1955 
     57 C          30.6835    0.3757  -10.1398 C.2       9 UNK         0.5031 
     58 O          30.5158    1.1975   -9.2347 O.2       9 UNK        -0.5390 
     59 N          31.8708    0.1052  -10.6957 N.am      10 UNK        -0.4204 
     60 CA         33.1164    0.8282  -10.4124 C.3       10 UNK         0.0237 
     61 CB         34.1195    0.5427  -11.5438 C.3       10 UNK        -0.1985 
     62 C          33.7599    0.5309   -9.0432 C.2       10 UNK         0.4970 
     63 O          34.6467    1.2851   -8.6396 O.2       10 UNK        -0.4914 
     64 N          33.3350   -0.5467   -8.3678 N.am      11 UNK        -0.4285 
     65 CA         33.9230   -1.0606   -7.1175 C.3       11 UNK         0.1007 
     66 C          35.3413   -1.6789   -7.3247 C.2       11 UNK         0.5703 
     67 N          36.0996   -1.9014   -6.2601 N.am      11 UNK        -0.7361 
     68 O          35.7464   -2.0056   -8.4396 O.2       11 UNK        -0.4986 
     69 C69        33.8357   -0.0258   -5.9506 C.3       12 UNK        -0.0947 
     70 S70        33.6485   -0.7896   -4.3025 S.3       12 UNK        -0.2240 
     71 C71        31.8405   -0.9002   -4.2280 C.3       12 UNK         0.0194 
     72 H72        26.2498   -4.3500   -7.8700 H         1 UNK         0.0906 
     73 H73        27.1976   -5.8246   -7.6590 H         1 UNK         0.0906 
     74 H74        25.4431   -5.9193   -7.7927 H         1 UNK         0.0906 
     75 H75        28.1110   -5.4396   -5.6291 H         1 UNK         0.3140 
     76 H76        26.7147   -5.9177   -3.2525 H         1 UNK         0.1085 
     77 H77        29.4612   -4.6391   -3.6602 H         1 UNK         0.0836 
     78 H78        29.1523   -6.3506   -3.6736 H         1 UNK         0.0836 
     79 H79        31.3836   -5.3570   -1.8981 H         1 UNK         0.0731 
     80 H80        31.0315   -5.0291   -0.2219 H         1 UNK         0.0731 
     81 H81        31.6702   -3.5020   -3.4281 H         1 UNK         0.1312 
     82 H82        30.9157    0.4946   -2.0901 H         1 UNK         0.1406 
     83 H83        29.7597   -2.8382    0.3516 H         1 UNK         0.1631 
     84 H84        30.4128    0.2648    0.9154 H         1 UNK         0.0717 
     85 H85        28.9426   -0.6784    0.9123 H         1 UNK         0.0717 
     86 H86        27.7731   -0.5714   -1.6697 H         1 UNK         0.0934 
     87 H87        26.6085    0.6985   -1.5051 H         1 UNK         0.0934 
     88 H88        29.0919    1.3311   -3.1391 H         1 UNK         0.0739 
     89 H89        27.5803   -0.9289   -3.8746 H         1 UNK         0.3093 
     90 H90        28.0527   -0.6292   -7.4146 H         1 UNK         0.0818 
     91 H91        29.1960   -2.5846   -5.3517 H         1 UNK         0.0819 
     92 H92        28.7175   -3.0406   -6.9859 H         1 UNK         0.0819 
     93 H93        30.0101   -1.8825   -6.7407 H         1 UNK         0.0819 
     94 H94        26.5964   -2.3980   -5.6280 H         1 UNK         0.3041 
     95 H95        23.5597   -0.5617   -5.7292 H         1 UNK         0.0784 
     96 H96        24.2124   -3.1264   -7.2699 H         1 UNK         0.0793 
     97 H97        22.6207   -2.6650   -6.6738 H         1 UNK         0.0793 
     98 H98        23.4097   -1.7024   -7.9114 H         1 UNK         0.0793 
     99 H99        24.3657   -3.1698   -4.7387 H         1 UNK         0.3024 
    100 H100       25.5254   -1.9605   -1.5858 H         1 UNK         0.1171 
    101 H101       23.7689   -3.4545   -0.6692 H         1 UNK         0.0786 
    102 H102       23.0422   -1.9745   -1.2716 H         1 UNK         0.0786 
    103 H103       22.9185   -3.4531   -2.2152 H         1 UNK         0.0786 
    104 H104       25.1061   -4.6077   -2.5393 H         1 UNK         0.2977 
    105 H105       25.7386    1.1288   -4.2764 H         1 UNK         0.3127 
    106 H106       25.2425    3.9785   -4.1551 H         1 UNK         0.0770 
    107 H107       23.7646    1.8097   -5.7283 H         1 UNK         0.0814 
    108 H108       23.1587    3.4006   -5.3057 H         1 UNK         0.0814 
    109 H109       23.4406    2.2142   -4.0424 H         1 UNK         0.0814 
    110 H110       27.4784    2.4853   -6.0108 H         1 UNK         0.2983 
    111 H111       28.7334    3.0503   -7.6904 H         1 UNK         0.0947 
    112 H112       28.8274    5.3372   -8.5407 H         1 UNK         0.0806 
    113 H113       28.5453    5.3894   -6.8099 H         1 UNK         0.0806 
    114 H114       27.2201    5.6960   -7.9334 H         1 UNK         0.0806 
    115 H115       26.2394    1.5144   -8.2140 H         1 UNK         0.3000 
    116 H116       25.7058    2.0196  -11.0531 H         1 UNK         0.0850 
    117 H117       24.3425    0.0172  -10.9241 H         1 UNK         0.0810 
    118 H118       24.0258    0.9437   -9.4646 H         1 UNK         0.0810 
    119 H119       25.0696   -0.4785   -9.4080 H         1 UNK         0.0810 
    120 H120       28.3683    0.7685   -9.3784 H         1 UNK         0.3040 
    121 H121       29.5358   -0.3657  -11.7892 H         1 UNK         0.0766 
    122 H122       28.6012   -2.3951  -10.5988 H         1 UNK         0.0812 
    123 H123       30.3557   -2.3988  -10.5875 H         1 UNK         0.0812 
    124 H124       29.4731   -1.9350   -9.1408 H         1 UNK         0.0812 
    125 H125       31.9157   -0.5943  -11.4235 H         1 UNK         0.3205 
    126 H126       32.8902    1.8968  -10.4262 H         1 UNK         0.0754 
    127 H127       34.3832   -0.5147  -11.5916 H         1 UNK         0.0769 
    128 H128       35.0452    1.1016  -11.3980 H         1 UNK         0.0769 
    129 H129       33.7192    0.8355  -12.5148 H         1 UNK         0.0769 
    130 H130       32.6283   -1.1262   -8.7938 H         1 UNK         0.2981 
    131 H131       33.2868   -1.9084   -6.8621 H         1 UNK         0.0541 
    132 H132       35.7656   -1.6557   -5.3398 H         1 UNK         0.3459 
    133 H133       37.0105   -2.3164   -6.3769 H         1 UNK         0.3459 
    134 H134       34.7136    0.6225   -5.9384 H         1 UNK         0.0612 
    135 H135       32.9885    0.6449   -6.1039 H         1 UNK         0.0612 
    136 H136       31.5019   -1.5466   -5.0357 H         1 UNK         0.0624 
    137 H137       31.4071    0.0835   -4.4159 H         1 UNK         0.0624 
@<TRIPOS>BOND
     1    1    2 1    
     2    1   72 1    
     3    1   73 1    
     4    1   74 1    
     5    2    3 2    
     6    2    4 am   BACKBONE|DICT|INTERRES
     7    4    5 1    
     8    4   75 1    
     9    5    6 1    
    10    5   35 1    
    11    5   76 1    
    12    6    7 1    
    13    6   77 1    
    14    6   78 1    
    15    7    8 1    
    16    8    9 1    
    17    8   79 1    
    18    8   80 1    
    19    9   10 ar   
    20    9   14 ar   
    21   10   11 ar   
    22   10   81 1    
    23   11   12 ar   
    24   11   71 1    
    25   12   13 ar   
    26   12   82 1    
    27   13   14 ar   
    28   13   15 1    
    29   14   83 1    
    30   15   16 1    
    31   15   84 1    
    32   15   85 1    
    33   16   17 1    
    34   17   18 1    
    35   17   86 1    
    36   17   87 1    
    37   18   19 1    
    38   18   37 1    
    39   18   88 1    
    40   19   20 am   BACKBONE|DICT|INTERRES
    41   19   89 1    
    42   20   21 2    
    43   20   22 1    
    44   22   23 1    
    45   22   24 1    
    46   22   90 1    
    47   23   91 1    
    48   23   92 1    
    49   23   93 1    
    50   24   25 am   BACKBONE|DICT|INTERRES
    51   24   94 1    
    52   25   26 2    
    53   25   27 1    
    54   27   28 1    
    55   27   29 1    
    56   27   95 1    
    57   28   96 1    
    58   28   97 1    
    59   28   98 1    
    60   29   30 am   BACKBONE|DICT|INTERRES
    61   29   99 1    
    62   30   31 2    
    63   30   32 1    
    64   32   33 1    
    65   32   34 1    
    66   32  100 1    
    67   33  101 1    
    68   33  102 1    
    69   33  103 1    
    70   34   35 am   BACKBONE|DICT|INTERRES
    71   34  104 1    
    72   35   36 2    
    73   37   38 2    
    74   37   39 am   BACKBONE|DICT|INTERRES
    75   39   40 1    
    76   39  105 1    
    77   40   41 1    
    78   40   42 1    
    79   40  106 1    
    80   41  107 1    
    81   41  108 1    
    82   41  109 1    
    83   42   43 2    
    84   42   44 am   BACKBONE|DICT|INTERRES
    85   44   45 1    
    86   44  110 1    
    87   45   46 1    
    88   45   47 1    
    89   45  111 1    
    90   46  112 1    
    91   46  113 1    
    92   46  114 1    
    93   47   48 2    
    94   47   49 am   BACKBONE|DICT|INTERRES
    95   49   50 1    
    96   49  115 1    
    97   50   51 1    
    98   50   52 1    
    99   50  116 1    
   100   51  117 1    
   101   51  118 1    
   102   51  119 1    
   103   52   53 2    
   104   52   54 am   BACKBONE|DICT|INTERRES
   105   54   55 1    
   106   54  120 1    
   107   55   56 1    
   108   55   57 1    
   109   55  121 1    
   110   56  122 1    
   111   56  123 1    
   112   56  124 1    
   113   57   58 2    
   114   57   59 am   BACKBONE|DICT|INTERRES
   115   59   60 1    
   116   59  125 1    
   117   60   61 1    
   118   60   62 1    
   119   60  126 1    
   120   61  127 1    
   121   61  128 1    
   122   61  129 1    
   123   62   63 2    
   124   62   64 am   BACKBONE|DICT|INTERRES
   125   64   65 1    
   126   64  130 1    
   127   65   66 1    
   128   65   69 1    
   129   65  131 1    
   130   66   67 am   BACKBONE|DICT|INTERRES
   131   66   68 2    
   132   67  132 1    
   133   67  133 1    
   134   69   70 1    
   135   69  134 1    
   136   69  135 1    
   137   70   71 1    
   138   71  136 1    
   139   71  137 1    
@<TRIPOS>SUBSTRUCTURE
     1 UNK         1 GROUP             0       ****    0 ROOT    
