@<TRIPOS>MOLECULE
3R137
137   139    1
SMALL
USER_CHARGES


@<TRIPOS>ATOM
      1 CA         24.8429   -4.6238   -0.0338 C.3       0 UNK        -0.2020 
      2 C          25.3410   -3.1903    0.0698 C.2       0 UNK         0.4855 
      3 O          24.8722   -2.4365    0.9243 O.2       0 UNK        -0.5197 
      4 N          26.2887   -2.8049   -0.7937 N.am      1 UNK        -0.4892 
      5 CA         26.8567   -1.4550   -0.8743 C.3       1 UNK         0.0835 
      6 C6         28.2764   -1.4556   -1.4960 C.3       12 UNK        -0.0855 
      7 S7         29.4812   -2.3499   -0.4602 S.3       12 UNK        -0.2931 
      8 C8         29.7071   -3.9075   -1.3873 C.3       12 UNK         0.0378 
      9 C9         30.4778   -3.7724   -2.7013 C.ar      12 UNK        -0.0802 
     10 C10        31.5245   -2.8517   -2.8520 C.ar      12 UNK        -0.0944 
     11 C11        32.2529   -2.7911   -4.0435 C.ar      12 UNK        -0.0787 
     12 C12        31.9430   -3.6677   -5.0842 C.ar      12 UNK        -0.0862 
     13 C13        30.8960   -4.5832   -4.9567 C.ar      12 UNK        -0.0733 
     14 C14        30.1687   -4.6317   -3.7633 C.ar      12 UNK        -0.0832 
     15 C15        30.5769   -5.5353   -6.1024 C.3       12 UNK         0.0240 
     16 S16        29.0948   -5.0431   -7.0428 S.3       12 UNK        -0.2522 
     17 C17        29.5531   -3.3897   -7.6912 C.3       12 UNK        -0.0967 
     18 CA         28.4646   -2.2807   -7.5491 C.3       5 UNK         0.0660 
     19 N          27.3638   -2.6432   -6.6461 N.am      5 UNK        -0.4015 
     20 C          26.2290   -1.9546   -6.4734 C.2       4 UNK         0.4946 
     21 O          26.0189   -0.8623   -7.0062 O.2       4 UNK        -0.5353 
     22 CA         25.1685   -2.5860   -5.5546 C.3       4 UNK         0.0277 
     23 CB         25.7848   -3.3166   -4.3446 C.3       4 UNK        -0.1981 
     24 N          24.2585   -1.5480   -5.0708 N.am      4 UNK        -0.4209 
     25 C          23.0157   -1.3352   -5.5266 C.2       3 UNK         0.4942 
     26 O          22.4718   -2.0483   -6.3723 O.2       3 UNK        -0.5208 
     27 CA         22.2476   -0.1126   -4.9731 C.3       3 UNK         0.0250 
     28 CB         20.7405   -0.3974   -4.7928 C.3       3 UNK        -0.1990 
     29 N          22.8239    0.4682   -3.7512 N.am      3 UNK        -0.4232 
     30 C          22.9470   -0.1219   -2.5538 C.2       2 UNK         0.4993 
     31 O          22.5256   -1.2481   -2.2812 O.2       2 UNK        -0.5286 
     32 CA         23.7091    0.6749   -1.4837 C.3       2 UNK         0.0209 
     33 CB         22.7705    1.1021   -0.3435 C.3       2 UNK        -0.1931 
     34 N          24.8092   -0.1190   -0.9368 N.am      2 UNK        -0.4546 
     35 C          25.8806   -0.5286   -1.6288 C.2       1 UNK         0.5154 
     36 O          26.0811   -0.2386   -2.8119 O.2       1 UNK        -0.5181 
     37 C          29.0958   -0.9028   -7.2382 C.2       5 UNK         0.5014 
     38 O          29.6315   -0.2666   -8.1468 O.2       5 UNK        -0.5248 
     39 N          28.9954   -0.4470   -5.9811 N.am      6 UNK        -0.4434 
     40 CA         29.4089    0.8877   -5.5454 C.3       6 UNK         0.0363 
     41 CB         29.4541    0.9369   -4.0122 C.3       6 UNK        -0.1936 
     42 C          28.5095    2.0074   -6.0922 C.2       6 UNK         0.5081 
     43 O          29.0187    3.0876   -6.3876 O.2       6 UNK        -0.5248 
     44 N          27.2073    1.7340   -6.2636 N.am      7 UNK        -0.4718 
     45 CA         26.2541    2.6602   -6.8858 C.3       7 UNK         0.0273 
     46 CB         24.8177    2.2548   -6.5212 C.3       7 UNK        -0.1935 
     47 C          26.4387    2.7290   -8.4109 C.2       7 UNK         0.5018 
     48 O          26.2153    3.7853   -9.0022 O.2       7 UNK        -0.5186 
     49 N          26.8927    1.6179   -9.0087 N.am      8 UNK        -0.4240 
     50 CA         27.3377    1.5370  -10.4032 C.3       8 UNK         0.0235 
     51 CB         27.3068    0.0661  -10.8524 C.3       8 UNK        -0.2000 
     52 C          28.7394    2.1428  -10.6315 C.2       8 UNK         0.4941 
     53 O          29.1386    2.2916  -11.7869 O.2       8 UNK        -0.5273 
     54 N          29.4574    2.4646   -9.5428 N.am      9 UNK        -0.4262 
     55 CA         30.8243    2.9944   -9.4809 C.3       9 UNK         0.0264 
     56 CB         30.8969    4.4082  -10.0961 C.3       9 UNK        -0.1955 
     57 C          31.8765    2.0263  -10.0577 C.2       9 UNK         0.5031 
     58 O          32.8412    2.4692  -10.6845 O.2       9 UNK        -0.5390 
     59 N          31.6803    0.7199   -9.8318 N.am      10 UNK        -0.4204 
     60 CA         32.5716   -0.3444  -10.3016 C.3       10 UNK         0.0237 
     61 CB         31.7702   -1.6513  -10.4036 C.3       10 UNK        -0.1985 
     62 C          33.8078   -0.5485   -9.4062 C.2       10 UNK         0.4970 
     63 O          34.7616   -1.1895   -9.8498 O.2       10 UNK        -0.4914 
     64 N          33.7622   -0.0420   -8.1667 N.am      11 UNK        -0.4285 
     65 CA         34.8206   -0.1651   -7.1523 C.3       11 UNK         0.1007 
     66 C          36.1536    0.5118   -7.5742 C.2       11 UNK         0.5703 
     67 N          37.2886   -0.0780   -7.2234 N.am      11 UNK        -0.7361 
     68 O          36.1668    1.5857   -8.1734 O.2       11 UNK        -0.4986 
     69 C69        34.3579    0.3691   -5.7703 C.3       12 UNK        -0.0947 
     70 S70        32.7909   -0.3742   -5.2139 S.3       12 UNK        -0.2240 
     71 C71        33.3738   -1.7811   -4.2259 C.3       12 UNK         0.0194 
     72 H72        25.3567   -5.1799   -0.8178 H         1 UNK         0.0906 
     73 H73        25.0002   -5.1447    0.9103 H         1 UNK         0.0906 
     74 H74        23.7759   -4.6330   -0.2551 H         1 UNK         0.0906 
     75 H75        26.6281   -3.4619   -1.4793 H         1 UNK         0.3140 
     76 H76        26.9523   -1.0559    0.1387 H         1 UNK         0.1085 
     77 H77        28.2753   -1.8634   -2.5076 H         1 UNK         0.0836 
     78 H78        28.6414   -0.4314   -1.5812 H         1 UNK         0.0836 
     79 H79        28.7275   -4.3535   -1.5634 H         1 UNK         0.0731 
     80 H80        30.2495   -4.6066   -0.7497 H         1 UNK         0.0731 
     81 H81        31.7810   -2.1840   -2.0414 H         1 UNK         0.1312 
     82 H82        32.5141   -3.6246   -6.0018 H         1 UNK         0.1406 
     83 H83        29.3705   -5.3545   -3.6593 H         1 UNK         0.1631 
     84 H84        30.4220   -6.5393   -5.7045 H         1 UNK         0.0717 
     85 H85        31.4225   -5.6104   -6.7881 H         1 UNK         0.0717 
     86 H86        30.4931   -3.0797   -7.2369 H         1 UNK         0.0934 
     87 H87        29.7907   -3.5190   -8.7480 H         1 UNK         0.0934 
     88 H88        27.9962   -2.1727   -8.5294 H         1 UNK         0.0739 
     89 H89        27.4687   -3.5412   -6.1946 H         1 UNK         0.3093 
     90 H90        24.6218   -3.3195   -6.1504 H         1 UNK         0.0818 
     91 H91        25.0159   -3.6089   -3.6286 H         1 UNK         0.0819 
     92 H92        26.2980   -4.2300   -4.6471 H         1 UNK         0.0819 
     93 H93        26.5055   -2.6905   -3.8214 H         1 UNK         0.0819 
     94 H94        24.6510   -0.8968   -4.4017 H         1 UNK         0.3041 
     95 H95        22.3385    0.6585   -5.7392 H         1 UNK         0.0784 
     96 H96        20.2763   -0.6697   -5.7415 H         1 UNK         0.0793 
     97 H97        20.5629   -1.2197   -4.0992 H         1 UNK         0.0793 
     98 H98        20.2126    0.4790   -4.4171 H         1 UNK         0.0793 
     99 H99        23.2073    1.3968   -3.8605 H         1 UNK         0.3024 
    100 H100       24.1365    1.5732   -1.9352 H         1 UNK         0.1171 
    101 H101       21.9465    1.7082   -0.7226 H         1 UNK         0.0786 
    102 H102       22.3348    0.2404    0.1645 H         1 UNK         0.0786 
    103 H103       23.2963    1.7000    0.4012 H         1 UNK         0.0786 
    104 H104       24.6699   -0.5208   -0.0165 H         1 UNK         0.2977 
    105 H105       28.5525   -1.0354   -5.2917 H         1 UNK         0.3127 
    106 H106       30.4148    1.0708   -5.9258 H         1 UNK         0.0770 
    107 H107       28.4598    0.8205   -3.5811 H         1 UNK         0.0814 
    108 H108       29.8484    1.8932   -3.6665 H         1 UNK         0.0814 
    109 H109       30.0979    0.1557   -3.6069 H         1 UNK         0.0814 
    110 H110       26.8678    0.7973   -6.0748 H         1 UNK         0.2983 
    111 H111       26.4343    3.6607   -6.4856 H         1 UNK         0.0947 
    112 H112       24.1008    2.9815   -6.9057 H         1 UNK         0.0806 
    113 H113       24.6850    2.2073   -5.4410 H         1 UNK         0.0806 
    114 H114       24.5497    1.2845   -6.9392 H         1 UNK         0.0806 
    115 H115       26.9998    0.7863   -8.4417 H         1 UNK         0.3000 
    116 H116       26.6350    2.0983  -11.0228 H         1 UNK         0.0850 
    117 H117       27.5271   -0.0189  -11.9173 H         1 UNK         0.0810 
    118 H118       26.3267   -0.3821  -10.6879 H         1 UNK         0.0810 
    119 H119       28.0464   -0.5338  -10.3228 H         1 UNK         0.0810 
    120 H120       29.0328    2.2832   -8.6435 H         1 UNK         0.3040 
    121 H121       31.0589    3.0895   -8.4196 H         1 UNK         0.0766 
    122 H122       30.1533    5.0711   -9.6537 H         1 UNK         0.0812 
    123 H123       30.7330    4.3904  -11.1739 H         1 UNK         0.0812 
    124 H124       31.8748    4.8597   -9.9243 H         1 UNK         0.0812 
    125 H125       30.8678    0.4284   -9.2872 H         1 UNK         0.3205 
    126 H126       32.9280   -0.0867  -11.3013 H         1 UNK         0.0754 
    127 H127       32.3738   -2.4482  -10.8403 H         1 UNK         0.0769 
    128 H128       30.8861   -1.5311  -11.0301 H         1 UNK         0.0769 
    129 H129       31.4448   -1.9903   -9.4211 H         1 UNK         0.0769 
    130 H130       32.9386    0.4651   -7.8837 H         1 UNK         0.2981 
    131 H131       35.0153   -1.2340   -7.0443 H         1 UNK         0.0541 
    132 H132       38.1631    0.3562   -7.4743 H         1 UNK         0.3459 
    133 H133       37.2904   -0.9517   -6.7203 H         1 UNK         0.3459 
    134 H134       34.2132    1.4504   -5.8106 H         1 UNK         0.0612 
    135 H135       35.1220    0.1926   -5.0108 H         1 UNK         0.0612 
    136 H136       34.2178   -2.2587   -4.7259 H         1 UNK         0.0624 
    137 H137       33.7397   -1.4225   -3.2627 H         1 UNK         0.0624 
@<TRIPOS>BOND
     1    1    2 1    
     2    1   72 1    
     3    1   73 1    
     4    1   74 1    
     5    2    3 2    
     6    2    4 am   BACKBONE|DICT|INTERRES
     7    4    5 1    
     8    4   75 1    
     9    5    6 1    
    10    5   35 1    
    11    5   76 1    
    12    6    7 1    
    13    6   77 1    
    14    6   78 1    
    15    7    8 1    
    16    8    9 1    
    17    8   79 1    
    18    8   80 1    
    19    9   10 ar   
    20    9   14 ar   
    21   10   11 ar   
    22   10   81 1    
    23   11   12 ar   
    24   11   71 1    
    25   12   13 ar   
    26   12   82 1    
    27   13   14 ar   
    28   13   15 1    
    29   14   83 1    
    30   15   16 1    
    31   15   84 1    
    32   15   85 1    
    33   16   17 1    
    34   17   18 1    
    35   17   86 1    
    36   17   87 1    
    37   18   19 1    
    38   18   37 1    
    39   18   88 1    
    40   19   20 am   BACKBONE|DICT|INTERRES
    41   19   89 1    
    42   20   21 2    
    43   20   22 1    
    44   22   23 1    
    45   22   24 1    
    46   22   90 1    
    47   23   91 1    
    48   23   92 1    
    49   23   93 1    
    50   24   25 am   BACKBONE|DICT|INTERRES
    51   24   94 1    
    52   25   26 2    
    53   25   27 1    
    54   27   28 1    
    55   27   29 1    
    56   27   95 1    
    57   28   96 1    
    58   28   97 1    
    59   28   98 1    
    60   29   30 am   BACKBONE|DICT|INTERRES
    61   29   99 1    
    62   30   31 2    
    63   30   32 1    
    64   32   33 1    
    65   32   34 1    
    66   32  100 1    
    67   33  101 1    
    68   33  102 1    
    69   33  103 1    
    70   34   35 am   BACKBONE|DICT|INTERRES
    71   34  104 1    
    72   35   36 2    
    73   37   38 2    
    74   37   39 am   BACKBONE|DICT|INTERRES
    75   39   40 1    
    76   39  105 1    
    77   40   41 1    
    78   40   42 1    
    79   40  106 1    
    80   41  107 1    
    81   41  108 1    
    82   41  109 1    
    83   42   43 2    
    84   42   44 am   BACKBONE|DICT|INTERRES
    85   44   45 1    
    86   44  110 1    
    87   45   46 1    
    88   45   47 1    
    89   45  111 1    
    90   46  112 1    
    91   46  113 1    
    92   46  114 1    
    93   47   48 2    
    94   47   49 am   BACKBONE|DICT|INTERRES
    95   49   50 1    
    96   49  115 1    
    97   50   51 1    
    98   50   52 1    
    99   50  116 1    
   100   51  117 1    
   101   51  118 1    
   102   51  119 1    
   103   52   53 2    
   104   52   54 am   BACKBONE|DICT|INTERRES
   105   54   55 1    
   106   54  120 1    
   107   55   56 1    
   108   55   57 1    
   109   55  121 1    
   110   56  122 1    
   111   56  123 1    
   112   56  124 1    
   113   57   58 2    
   114   57   59 am   BACKBONE|DICT|INTERRES
   115   59   60 1    
   116   59  125 1    
   117   60   61 1    
   118   60   62 1    
   119   60  126 1    
   120   61  127 1    
   121   61  128 1    
   122   61  129 1    
   123   62   63 2    
   124   62   64 am   BACKBONE|DICT|INTERRES
   125   64   65 1    
   126   64  130 1    
   127   65   66 1    
   128   65   69 1    
   129   65  131 1    
   130   66   67 am   BACKBONE|DICT|INTERRES
   131   66   68 2    
   132   67  132 1    
   133   67  133 1    
   134   69   70 1    
   135   69  134 1    
   136   69  135 1    
   137   70   71 1    
   138   71  136 1    
   139   71  137 1    
@<TRIPOS>SUBSTRUCTURE
     1 UNK         1 GROUP             0       ****    0 ROOT    
