@<TRIPOS>MOLECULE
3R137
137   139    1
SMALL
USER_CHARGES


@<TRIPOS>ATOM
      1 CA         25.5092   -4.8862   -7.1909 C.3       0 UNK        -0.2020 
      2 C          25.6221   -5.2962   -5.7310 C.2       0 UNK         0.4855 
      3 O          24.8912   -6.1806   -5.2826 O.2       0 UNK        -0.5197 
      4 N          26.5307   -4.6599   -4.9819 N.am      1 UNK        -0.4892 
      5 CA         26.8022   -4.9118   -3.5610 C.3       1 UNK         0.0835 
      6 C6         28.2085   -4.4017   -3.1568 C.3       12 UNK        -0.0855 
      7 S7         29.5638   -5.2146   -4.0710 S.3       12 UNK        -0.2931 
      8 C8         30.9626   -4.9898   -2.9222 C.3       12 UNK         0.0378 
      9 C9         31.4284   -3.5403   -2.8564 C.ar      12 UNK        -0.0802 
     10 C10        32.5158   -3.1068   -3.6233 C.ar      12 UNK        -0.0944 
     11 C11        32.9583   -1.7798   -3.5612 C.ar      12 UNK        -0.0787 
     12 C12        32.2914   -0.8866   -2.7117 C.ar      12 UNK        -0.0862 
     13 C13        31.1858   -1.2985   -1.9636 C.ar      12 UNK        -0.0733 
     14 C14        30.7756   -2.6307   -2.0206 C.ar      12 UNK        -0.0832 
     15 C15        30.4196   -0.3022   -1.1061 C.3       12 UNK         0.0240 
     16 S16        28.8773    0.2376   -1.9170 S.3       12 UNK        -0.2522 
     17 C17        29.5114    1.2399   -3.3038 C.3       12 UNK        -0.0967 
     18 CA         28.6441    1.1156   -4.5804 C.3       5 UNK         0.0660 
     19 N          27.2829    1.6236   -4.3533 N.am      5 UNK        -0.4015 
     20 C          26.3279    1.8768   -5.2597 C.2       4 UNK         0.4946 
     21 O          26.4856    1.8076   -6.4806 O.2       4 UNK        -0.5353 
     22 CA         24.9491    2.2729   -4.7031 C.3       4 UNK         0.0277 
     23 CB         24.3360    3.4277   -5.5154 C.3       4 UNK        -0.1981 
     24 N          24.0187    1.1401   -4.7012 N.am      4 UNK        -0.4209 
     25 C          24.1524    0.0317   -3.9595 C.2       3 UNK         0.4942 
     26 O          25.0724   -0.1450   -3.1569 O.2       3 UNK        -0.5208 
     27 CA         23.0744   -1.0517   -4.1282 C.3       3 UNK         0.0250 
     28 CB         22.9663   -1.5434   -5.5868 C.3       3 UNK        -0.1990 
     29 N          23.4054   -2.1734   -3.2539 N.am      3 UNK        -0.4232 
     30 C          22.6160   -3.2024   -2.9304 C.2       2 UNK         0.4993 
     31 O          21.4405   -3.2992   -3.2887 O.2       2 UNK        -0.5286 
     32 CA         23.2697   -4.3269   -2.1029 C.3       2 UNK         0.0209 
     33 CB         22.3156   -5.5083   -1.8430 C.3       2 UNK        -0.1931 
     34 N          24.4724   -4.8303   -2.7740 N.am      2 UNK        -0.4546 
     35 C          25.6959   -4.2979   -2.6722 C.2       1 UNK         0.5154 
     36 O          25.9436   -3.3326   -1.9475 O.2       1 UNK        -0.5181 
     37 C          29.3878    1.7684   -5.7609 C.2       5 UNK         0.5014 
     38 O          29.9940    1.0586   -6.5655 O.2       5 UNK        -0.5248 
     39 N          29.3204    3.1030   -5.8513 N.am      6 UNK        -0.4434 
     40 CA         29.9980    3.8998   -6.8751 C.3       6 UNK         0.0363 
     41 CB         29.7797    5.3931   -6.5870 C.3       6 UNK        -0.1936 
     42 C          29.5804    3.5654   -8.3181 C.2       6 UNK         0.5081 
     43 O          30.4094    3.6911   -9.2196 O.2       6 UNK        -0.5248 
     44 N          28.3231    3.1425   -8.5032 N.am      7 UNK        -0.4718 
     45 CA         27.7420    2.8084   -9.8017 C.3       7 UNK         0.0273 
     46 CB         26.4007    3.5450   -9.9573 C.3       7 UNK        -0.1935 
     47 C          27.5431    1.2961   -9.9583 C.2       7 UNK         0.5018 
     48 O          27.9308    0.7434  -10.9871 O.2       7 UNK        -0.5186 
     49 N          26.9355    0.6532   -8.9517 N.am      8 UNK        -0.4240 
     50 CA         26.5034   -0.7443   -9.0072 C.3       8 UNK         0.0235 
     51 CB         25.4396   -0.9923   -7.9299 C.3       8 UNK        -0.2000 
     52 C          27.6615   -1.7390   -8.8656 C.2       8 UNK         0.4941 
     53 O          27.6981   -2.7257   -9.6005 O.2       8 UNK        -0.5273 
     54 N          28.5907   -1.4572   -7.9419 N.am      9 UNK        -0.4262 
     55 CA         29.8320   -2.2214   -7.7745 C.3       9 UNK         0.0264 
     56 CB         30.1975   -2.2863   -6.2810 C.3       9 UNK        -0.1955 
     57 C          30.9863   -1.6249   -8.6024 C.2       9 UNK         0.5031 
     58 O          32.0654   -2.2176   -8.6362 O.2       9 UNK        -0.5390 
     59 N          30.7433   -0.4651   -9.2362 N.am      10 UNK        -0.4204 
     60 CA         31.6783    0.3634  -10.0050 C.3       10 UNK         0.0237 
     61 CB         32.1087   -0.3550  -11.3015 C.3       10 UNK        -0.1985 
     62 C          32.8708    0.8550   -9.1609 C.2       10 UNK         0.4970 
     63 O          33.9794    0.9855   -9.6834 O.2       10 UNK        -0.4914 
     64 N          32.6253    1.1055   -7.8677 N.am      11 UNK        -0.4285 
     65 CA         33.6426    1.4933   -6.8811 C.3       11 UNK         0.1007 
     66 C          34.1244    2.9729   -6.9771 C.2       11 UNK         0.5703 
     67 N          33.5607    3.8071   -7.8440 N.am      11 UNK        -0.7361 
     68 O          35.0386    3.3721   -6.2604 O.2       11 UNK        -0.4986 
     69 C69        33.1953    1.0951   -5.4457 C.3       12 UNK        -0.0947 
     70 S70        34.5649    0.4150   -4.4495 S.3       12 UNK        -0.2240 
     71 C71        34.1550   -1.3690   -4.4265 C.3       12 UNK         0.0194 
     72 H72        26.2849   -4.1762   -7.4755 H         1 UNK         0.0906 
     73 H73        25.6033   -5.7607   -7.8341 H         1 UNK         0.0906 
     74 H74        24.5380   -4.4291   -7.3781 H         1 UNK         0.0906 
     75 H75        27.1076   -3.9476   -5.4045 H         1 UNK         0.3140 
     76 H76        26.7815   -5.9909   -3.3909 H         1 UNK         0.1085 
     77 H77        28.2853   -3.3232   -3.3115 H         1 UNK         0.0836 
     78 H78        28.3659   -4.5751   -2.0906 H         1 UNK         0.0836 
     79 H79        31.7846   -5.6292   -3.2474 H         1 UNK         0.0731 
     80 H80        30.6846   -5.3420   -1.9276 H         1 UNK         0.0731 
     81 H81        33.0207   -3.8072   -4.2748 H         1 UNK         0.1312 
     82 H82        32.6095    0.1426   -2.6376 H         1 UNK         0.1406 
     83 H83        29.9313   -2.9494   -1.4258 H         1 UNK         0.1631 
     84 H84        31.0344    0.5698   -0.8770 H         1 UNK         0.0717 
     85 H85        30.1723   -0.7612   -0.1478 H         1 UNK         0.0717 
     86 H86        29.5717    2.2788   -2.9736 H         1 UNK         0.0934 
     87 H87        30.5355    0.9392   -3.5209 H         1 UNK         0.0934 
     88 H88        28.5409    0.0561   -4.8227 H         1 UNK         0.0739 
     89 H89        27.0088    1.6483   -3.3808 H         1 UNK         0.3093 
     90 H90        25.0716    2.6155   -3.6733 H         1 UNK         0.0818 
     91 H91        25.0093    4.2855   -5.5434 H         1 UNK         0.0819 
     92 H92        24.1375    3.1379   -6.5483 H         1 UNK         0.0819 
     93 H93        23.3980    3.7682   -5.0766 H         1 UNK         0.0819 
     94 H94        23.2415    1.2017   -5.3425 H         1 UNK         0.3041 
     95 H95        22.1207   -0.6249   -3.8115 H         1 UNK         0.0784 
     96 H96        22.8099   -0.7228   -6.2870 H         1 UNK         0.0793 
     97 H97        23.8669   -2.0770   -5.8882 H         1 UNK         0.0793 
     98 H98        22.1258   -2.2256   -5.7141 H         1 UNK         0.0793 
     99 H99        24.3473   -2.1330   -2.8717 H         1 UNK         0.3024 
    100 H100       23.5424   -3.8984   -1.1354 H         1 UNK         0.1171 
    101 H101       22.7899   -6.2720   -1.2264 H         1 UNK         0.0786 
    102 H102       21.4192   -5.1792   -1.3156 H         1 UNK         0.0786 
    103 H103       21.9945   -5.9799   -2.7727 H         1 UNK         0.0786 
    104 H104       24.3394   -5.5482   -3.4809 H         1 UNK         0.2977 
    105 H105       28.7818    3.6073   -5.1621 H         1 UNK         0.3127 
    106 H106       31.0640    3.6899   -6.7867 H         1 UNK         0.0770 
    107 H107       28.7232    5.6617   -6.6256 H         1 UNK         0.0814 
    108 H108       30.3000    6.0109   -7.3205 H         1 UNK         0.0814 
    109 H109       30.1635    5.6695   -5.6049 H         1 UNK         0.0814 
    110 H110       27.7358    2.9965   -7.6894 H         1 UNK         0.2983 
    111 H111       28.3991    3.1381  -10.6098 H         1 UNK         0.0947 
    112 H112       25.9301    3.3039  -10.9115 H         1 UNK         0.0806 
    113 H113       26.5401    4.6258   -9.9298 H         1 UNK         0.0806 
    114 H114       25.6958    3.2800   -9.1679 H         1 UNK         0.0806 
    115 H115       26.6884    1.1689   -8.1067 H         1 UNK         0.3000 
    116 H116       26.0383   -0.9140   -9.9811 H         1 UNK         0.0850 
    117 H117       25.8471   -0.8894   -6.9234 H         1 UNK         0.0810 
    118 H118       24.6097   -0.2924   -8.0273 H         1 UNK         0.0810 
    119 H119       25.0273   -1.9971   -8.0210 H         1 UNK         0.0810 
    120 H120       28.4997   -0.6146   -7.3894 H         1 UNK         0.3040 
    121 H121       29.6812   -3.2465   -8.1197 H         1 UNK         0.0766 
    122 H122       30.5313   -1.3271   -5.8889 H         1 UNK         0.0812 
    123 H123       31.0109   -2.9939   -6.1184 H         1 UNK         0.0812 
    124 H124       29.3562   -2.6205   -5.6752 H         1 UNK         0.0812 
    125 H125       29.8179   -0.0774   -9.1257 H         1 UNK         0.3205 
    126 H126       31.1239    1.2571  -10.2944 H         1 UNK         0.0754 
    127 H127       32.6944    0.3071  -11.9403 H         1 UNK         0.0769 
    128 H128       31.2430   -0.6782  -11.8798 H         1 UNK         0.0769 
    129 H129       32.7212   -1.2330  -11.0939 H         1 UNK         0.0769 
    130 H130       31.6791    0.9993   -7.5126 H         1 UNK         0.2981 
    131 H131       34.5246    0.8984   -7.1259 H         1 UNK         0.0541 
    132 H132       32.8187    3.4970   -8.4526 H         1 UNK         0.3459 
    133 H133       33.8948    4.7560   -7.8990 H         1 UNK         0.3459 
    134 H134       32.4099    0.3390   -5.4837 H         1 UNK         0.0612 
    135 H135       32.7520    1.9397   -4.9149 H         1 UNK         0.0612 
    136 H136       33.9854   -1.6963   -5.4538 H         1 UNK         0.0624 
    137 H137       35.0334   -1.9092   -4.0714 H         1 UNK         0.0624 
@<TRIPOS>BOND
     1    1    2 1    
     2    1   72 1    
     3    1   73 1    
     4    1   74 1    
     5    2    3 2    
     6    2    4 am   BACKBONE|DICT|INTERRES
     7    4    5 1    
     8    4   75 1    
     9    5    6 1    
    10    5   35 1    
    11    5   76 1    
    12    6    7 1    
    13    6   77 1    
    14    6   78 1    
    15    7    8 1    
    16    8    9 1    
    17    8   79 1    
    18    8   80 1    
    19    9   10 ar   
    20    9   14 ar   
    21   10   11 ar   
    22   10   81 1    
    23   11   12 ar   
    24   11   71 1    
    25   12   13 ar   
    26   12   82 1    
    27   13   14 ar   
    28   13   15 1    
    29   14   83 1    
    30   15   16 1    
    31   15   84 1    
    32   15   85 1    
    33   16   17 1    
    34   17   18 1    
    35   17   86 1    
    36   17   87 1    
    37   18   19 1    
    38   18   37 1    
    39   18   88 1    
    40   19   20 am   BACKBONE|DICT|INTERRES
    41   19   89 1    
    42   20   21 2    
    43   20   22 1    
    44   22   23 1    
    45   22   24 1    
    46   22   90 1    
    47   23   91 1    
    48   23   92 1    
    49   23   93 1    
    50   24   25 am   BACKBONE|DICT|INTERRES
    51   24   94 1    
    52   25   26 2    
    53   25   27 1    
    54   27   28 1    
    55   27   29 1    
    56   27   95 1    
    57   28   96 1    
    58   28   97 1    
    59   28   98 1    
    60   29   30 am   BACKBONE|DICT|INTERRES
    61   29   99 1    
    62   30   31 2    
    63   30   32 1    
    64   32   33 1    
    65   32   34 1    
    66   32  100 1    
    67   33  101 1    
    68   33  102 1    
    69   33  103 1    
    70   34   35 am   BACKBONE|DICT|INTERRES
    71   34  104 1    
    72   35   36 2    
    73   37   38 2    
    74   37   39 am   BACKBONE|DICT|INTERRES
    75   39   40 1    
    76   39  105 1    
    77   40   41 1    
    78   40   42 1    
    79   40  106 1    
    80   41  107 1    
    81   41  108 1    
    82   41  109 1    
    83   42   43 2    
    84   42   44 am   BACKBONE|DICT|INTERRES
    85   44   45 1    
    86   44  110 1    
    87   45   46 1    
    88   45   47 1    
    89   45  111 1    
    90   46  112 1    
    91   46  113 1    
    92   46  114 1    
    93   47   48 2    
    94   47   49 am   BACKBONE|DICT|INTERRES
    95   49   50 1    
    96   49  115 1    
    97   50   51 1    
    98   50   52 1    
    99   50  116 1    
   100   51  117 1    
   101   51  118 1    
   102   51  119 1    
   103   52   53 2    
   104   52   54 am   BACKBONE|DICT|INTERRES
   105   54   55 1    
   106   54  120 1    
   107   55   56 1    
   108   55   57 1    
   109   55  121 1    
   110   56  122 1    
   111   56  123 1    
   112   56  124 1    
   113   57   58 2    
   114   57   59 am   BACKBONE|DICT|INTERRES
   115   59   60 1    
   116   59  125 1    
   117   60   61 1    
   118   60   62 1    
   119   60  126 1    
   120   61  127 1    
   121   61  128 1    
   122   61  129 1    
   123   62   63 2    
   124   62   64 am   BACKBONE|DICT|INTERRES
   125   64   65 1    
   126   64  130 1    
   127   65   66 1    
   128   65   69 1    
   129   65  131 1    
   130   66   67 am   BACKBONE|DICT|INTERRES
   131   66   68 2    
   132   67  132 1    
   133   67  133 1    
   134   69   70 1    
   135   69  134 1    
   136   69  135 1    
   137   70   71 1    
   138   71  136 1    
   139   71  137 1    
@<TRIPOS>SUBSTRUCTURE
     1 UNK         1 GROUP             0       ****    0 ROOT    
