@<TRIPOS>MOLECULE
3R137
137   139    1
SMALL
USER_CHARGES


@<TRIPOS>ATOM
      1 CA         29.3119   -1.1434   -5.3321 C.3       0 UNK        -0.2020 
      2 C          29.2954   -2.6536   -5.4283 C.2       0 UNK         0.4855 
      3 O          29.5857   -3.2139   -6.4846 O.2       0 UNK        -0.5197 
      4 N          28.9218   -3.3134   -4.3294 N.am      1 UNK        -0.4892 
      5 CA         28.7920   -4.7638   -4.1709 C.3       1 UNK         0.0835 
      6 C6         28.8841   -5.1670   -2.6736 C.3       12 UNK        -0.0855 
      7 S7         27.8300   -4.1716   -1.5510 S.3       12 UNK        -0.2931 
      8 C8         29.0455   -3.5023   -0.3697 C.3       12 UNK         0.0378 
      9 C9         29.6981   -2.2132   -0.8555 C.ar      12 UNK        -0.0802 
     10 C10        30.8959   -2.2480   -1.5776 C.ar      12 UNK        -0.0944 
     11 C11        31.5354   -1.0607   -1.9495 C.ar      12 UNK        -0.0787 
     12 C12        30.9622    0.1685   -1.6069 C.ar      12 UNK        -0.0862 
     13 C13        29.7744    0.2187   -0.8716 C.ar      12 UNK        -0.0733 
     14 C14        29.1425   -0.9764   -0.5096 C.ar      12 UNK        -0.0832 
     15 C15        29.2347    1.5559   -0.3752 C.3       12 UNK         0.0240 
     16 S16        27.5340    1.8942   -0.9280 S.3       12 UNK        -0.2522 
     17 C17        27.7836    2.6918   -2.5524 C.3       12 UNK        -0.0967 
     18 CA         27.6367    1.6988   -3.7396 C.3       5 UNK         0.0660 
     19 N          26.3916    0.9281   -3.6869 N.am      5 UNK        -0.4015 
     20 C          25.1457    1.3889   -3.8440 C.2       4 UNK         0.4946 
     21 O          24.8752    2.5313   -4.2232 O.2       4 UNK        -0.5353 
     22 CA         24.0147    0.3970   -3.5059 C.3       4 UNK         0.0277 
     23 CB         22.6839    1.1188   -3.2230 C.3       4 UNK        -0.1981 
     24 N          23.7898   -0.6076   -4.5471 N.am      4 UNK        -0.4209 
     25 C          24.6457   -1.5644   -4.9275 C.2       3 UNK         0.4942 
     26 O          25.7719   -1.7202   -4.4440 O.2       3 UNK        -0.5208 
     27 CA         24.1514   -2.5057   -6.0336 C.3       3 UNK         0.0250 
     28 CB         23.7029   -1.7347   -7.2933 C.3       3 UNK        -0.1990 
     29 N          25.2282   -3.4375   -6.3514 N.am      3 UNK        -0.4232 
     30 C          25.0964   -4.6359   -6.9296 C.2       2 UNK         0.4993 
     31 O          24.0225   -5.0887   -7.3282 O.2       2 UNK        -0.5286 
     32 CA         26.3736   -5.4786   -7.1005 C.3       2 UNK         0.0209 
     33 CB         26.8659   -5.4175   -8.5562 C.3       2 UNK        -0.1931 
     34 N          27.4676   -5.0688   -6.2152 N.am      2 UNK        -0.4546 
     35 C          27.5480   -5.3269   -4.9034 C.2       1 UNK         0.5154 
     36 O          26.6952   -5.9753   -4.2941 O.2       1 UNK        -0.5181 
     37 C          27.8100    2.3436   -5.1320 C.2       5 UNK         0.5014 
     38 O          28.0256    1.6207   -6.1081 O.2       5 UNK        -0.5248 
     39 N          27.6600    3.6728   -5.2235 N.am      6 UNK        -0.4434 
     40 CA         27.7258    4.4610   -6.4588 C.3       6 UNK         0.0363 
     41 CB         27.5991    5.9523   -6.1080 C.3       6 UNK        -0.1936 
     42 C          26.6909    4.0712   -7.5338 C.2       6 UNK         0.5081 
     43 O          26.8896    4.4157   -8.6987 O.2       6 UNK        -0.5248 
     44 N          25.6280    3.3464   -7.1492 N.am      7 UNK        -0.4718 
     45 CA         24.6538    2.7512   -8.0694 C.3       7 UNK         0.0273 
     46 CB         23.4732    2.1837   -7.2660 C.3       7 UNK        -0.1935 
     47 C          25.2535    1.6623   -8.9817 C.2       7 UNK         0.5018 
     48 O          24.7342    1.4602  -10.0799 O.2       7 UNK        -0.5186 
     49 N          26.3228    0.9939   -8.5239 N.am      8 UNK        -0.4240 
     50 CA         27.0991    0.0319   -9.3100 C.3       8 UNK         0.0235 
     51 CB         27.2040   -1.3124   -8.5667 C.3       8 UNK        -0.2000 
     52 C          28.4927    0.5857   -9.6272 C.2       8 UNK         0.4941 
     53 O          28.9145    0.5144  -10.7814 O.2       8 UNK        -0.5273 
     54 N          29.1861    1.1060   -8.6004 N.am      9 UNK        -0.4262 
     55 CA         30.5446    1.6693   -8.6348 C.3       9 UNK         0.0264 
     56 CB         30.5615    2.9860   -9.4394 C.3       9 UNK        -0.1955 
     57 C          31.6401    0.6833   -9.1026 C.2       9 UNK         0.5031 
     58 O          32.7123    1.1194   -9.5257 O.2       9 UNK        -0.5390 
     59 N          31.3725   -0.6273   -9.0043 N.am      10 UNK        -0.4204 
     60 CA         32.2447   -1.7076   -9.4791 C.3       10 UNK         0.0237 
     61 CB         31.4105   -2.9917   -9.6245 C.3       10 UNK        -0.1985 
     62 C          33.4859   -1.9579   -8.6008 C.2       10 UNK         0.4970 
     63 O          34.3559   -2.7304   -9.0056 O.2       10 UNK        -0.4914 
     64 N          33.5492   -1.3195   -7.4260 N.am      11 UNK        -0.4285 
     65 CA         34.6529   -1.4140   -6.4577 C.3       11 UNK         0.1007 
     66 C          36.0037   -0.8115   -6.9453 C.2       11 UNK         0.5703 
     67 N          36.0254    0.0227   -7.9791 N.am      11 UNK        -0.7361 
     68 O          37.0498   -1.1098   -6.3740 O.2       11 UNK        -0.4986 
     69 C69        34.2600   -0.8077   -5.0846 C.3       12 UNK        -0.0947 
     70 S70        32.6851   -1.4546   -4.4338 S.3       12 UNK        -0.2240 
     71 C71        32.8780   -1.1004   -2.6650 C.3       12 UNK         0.0194 
     72 H72        28.2876   -0.7785   -5.3548 H         1 UNK         0.0906 
     73 H73        29.7755   -0.8191   -4.4015 H         1 UNK         0.0906 
     74 H74        29.8632   -0.7010   -6.1604 H         1 UNK         0.0906 
     75 H75        28.6558   -2.7900   -3.5054 H         1 UNK         0.3140 
     76 H76        29.6481   -5.2232   -4.6707 H         1 UNK         0.1085 
     77 H77        28.6438   -6.2230   -2.5356 H         1 UNK         0.0836 
     78 H78        29.9227   -5.0750   -2.3551 H         1 UNK         0.0836 
     79 H79        28.5332   -3.3147    0.5753 H         1 UNK         0.0731 
     80 H80        29.8040   -4.2539   -0.1455 H         1 UNK         0.0731 
     81 H81        31.3481   -3.1975   -1.8288 H         1 UNK         0.1312 
     82 H82        31.4677    1.0867   -1.8738 H         1 UNK         0.1406 
     83 H83        28.2331   -0.9414    0.0755 H         1 UNK         0.1631 
     84 H84        29.8886    2.3806   -0.6621 H         1 UNK         0.0717 
     85 H85        29.2394    1.5389    0.7155 H         1 UNK         0.0717 
     86 H86        27.0420    3.4899   -2.6181 H         1 UNK         0.0934 
     87 H87        28.7610    3.1774   -2.5735 H         1 UNK         0.0934 
     88 H88        28.4443    0.9746   -3.6411 H         1 UNK         0.0739 
     89 H89        26.4912   -0.0672   -3.5189 H         1 UNK         0.3093 
     90 H90        24.3058   -0.1266   -2.5925 H         1 UNK         0.0818 
     91 H91        21.9178    0.4229   -2.8806 H         1 UNK         0.0819 
     92 H92        22.8071    1.8710   -2.4425 H         1 UNK         0.0819 
     93 H93        22.3036    1.6298   -4.1087 H         1 UNK         0.0819 
     94 H94        22.8942   -0.5628   -5.0106 H         1 UNK         0.3041 
     95 H95        23.3085   -3.0746   -5.6358 H         1 UNK         0.0784 
     96 H96        22.7708   -1.1977   -7.1164 H         1 UNK         0.0793 
     97 H97        24.4435   -0.9983   -7.6015 H         1 UNK         0.0793 
     98 H98        23.5252   -2.4030   -8.1359 H         1 UNK         0.0793 
     99 H99        26.1270   -3.1705   -5.9690 H         1 UNK         0.3024 
    100 H100       26.1104   -6.5130   -6.8678 H         1 UNK         0.1171 
    101 H101       26.0838   -5.7342   -9.2478 H         1 UNK         0.0786 
    102 H102       27.7210   -6.0751   -8.7133 H         1 UNK         0.0786 
    103 H103       27.1634   -4.4076   -8.8399 H         1 UNK         0.0786 
    104 H104       28.2098   -4.5011   -6.6190 H         1 UNK         0.2977 
    105 H105       27.4257    4.1835   -4.3851 H         1 UNK         0.3127 
    106 H106       28.7128    4.2950   -6.8950 H         1 UNK         0.0770 
    107 H107       26.6384    6.1764   -5.6424 H         1 UNK         0.0814 
    108 H108       27.6796    6.5723   -7.0022 H         1 UNK         0.0814 
    109 H109       28.3878    6.2700   -5.4259 H         1 UNK         0.0814 
    110 H110       25.5152    3.1323   -6.1632 H         1 UNK         0.2983 
    111 H111       24.2775    3.5471   -8.7159 H         1 UNK         0.0947 
    112 H112       22.7038    1.7864   -7.9294 H         1 UNK         0.0806 
    113 H113       23.0058    2.9507   -6.6481 H         1 UNK         0.0806 
    114 H114       23.7889    1.3728   -6.6110 H         1 UNK         0.0806 
    115 H115       26.7021    1.2600   -7.6214 H         1 UNK         0.3000 
    116 H116       26.6139   -0.1617  -10.2693 H         1 UNK         0.0850 
    117 H117       27.9931   -1.9407   -8.9830 H         1 UNK         0.0810 
    118 H118       27.4148   -1.1785   -7.5073 H         1 UNK         0.0810 
    119 H119       26.2789   -1.8794   -8.6545 H         1 UNK         0.0810 
    120 H120       28.7384    1.1468   -7.6853 H         1 UNK         0.3040 
    121 H121       30.7883    1.9153   -7.6001 H         1 UNK         0.0766 
    122 H122       29.7887    3.6731   -9.0952 H         1 UNK         0.0812 
    123 H123       30.4007    2.8097  -10.5034 H         1 UNK         0.0812 
    124 H124       31.5187    3.4984   -9.3360 H         1 UNK         0.0812 
    125 H125       30.4737   -0.9035   -8.6380 H         1 UNK         0.3205 
    126 H126       32.6098   -1.4306  -10.4704 H         1 UNK         0.0754 
    127 H127       32.0053   -3.7981  -10.0559 H         1 UNK         0.0769 
    128 H128       30.5530   -2.8386  -10.2802 H         1 UNK         0.0769 
    129 H129       31.0402   -3.3431   -8.6615 H         1 UNK         0.0769 
    130 H130       32.7866   -0.7149   -7.1653 H         1 UNK         0.2981 
    131 H131       34.8384   -2.4784   -6.3020 H         1 UNK         0.0541 
    132 H132       36.9054    0.4044   -8.2878 H         1 UNK         0.3459 
    133 H133       35.1703    0.2753   -8.4510 H         1 UNK         0.3459 
    134 H134       34.1712    0.2780   -5.1564 H         1 UNK         0.0612 
    135 H135       35.0437   -1.0060   -4.3507 H         1 UNK         0.0612 
    136 H136       33.3960   -0.1479   -2.5414 H         1 UNK         0.0624 
    137 H137       33.5189   -1.8600   -2.2149 H         1 UNK         0.0624 
@<TRIPOS>BOND
     1    1    2 1    
     2    1   72 1    
     3    1   73 1    
     4    1   74 1    
     5    2    3 2    
     6    2    4 am   BACKBONE|DICT|INTERRES
     7    4    5 1    
     8    4   75 1    
     9    5    6 1    
    10    5   35 1    
    11    5   76 1    
    12    6    7 1    
    13    6   77 1    
    14    6   78 1    
    15    7    8 1    
    16    8    9 1    
    17    8   79 1    
    18    8   80 1    
    19    9   10 ar   
    20    9   14 ar   
    21   10   11 ar   
    22   10   81 1    
    23   11   12 ar   
    24   11   71 1    
    25   12   13 ar   
    26   12   82 1    
    27   13   14 ar   
    28   13   15 1    
    29   14   83 1    
    30   15   16 1    
    31   15   84 1    
    32   15   85 1    
    33   16   17 1    
    34   17   18 1    
    35   17   86 1    
    36   17   87 1    
    37   18   19 1    
    38   18   37 1    
    39   18   88 1    
    40   19   20 am   BACKBONE|DICT|INTERRES
    41   19   89 1    
    42   20   21 2    
    43   20   22 1    
    44   22   23 1    
    45   22   24 1    
    46   22   90 1    
    47   23   91 1    
    48   23   92 1    
    49   23   93 1    
    50   24   25 am   BACKBONE|DICT|INTERRES
    51   24   94 1    
    52   25   26 2    
    53   25   27 1    
    54   27   28 1    
    55   27   29 1    
    56   27   95 1    
    57   28   96 1    
    58   28   97 1    
    59   28   98 1    
    60   29   30 am   BACKBONE|DICT|INTERRES
    61   29   99 1    
    62   30   31 2    
    63   30   32 1    
    64   32   33 1    
    65   32   34 1    
    66   32  100 1    
    67   33  101 1    
    68   33  102 1    
    69   33  103 1    
    70   34   35 am   BACKBONE|DICT|INTERRES
    71   34  104 1    
    72   35   36 2    
    73   37   38 2    
    74   37   39 am   BACKBONE|DICT|INTERRES
    75   39   40 1    
    76   39  105 1    
    77   40   41 1    
    78   40   42 1    
    79   40  106 1    
    80   41  107 1    
    81   41  108 1    
    82   41  109 1    
    83   42   43 2    
    84   42   44 am   BACKBONE|DICT|INTERRES
    85   44   45 1    
    86   44  110 1    
    87   45   46 1    
    88   45   47 1    
    89   45  111 1    
    90   46  112 1    
    91   46  113 1    
    92   46  114 1    
    93   47   48 2    
    94   47   49 am   BACKBONE|DICT|INTERRES
    95   49   50 1    
    96   49  115 1    
    97   50   51 1    
    98   50   52 1    
    99   50  116 1    
   100   51  117 1    
   101   51  118 1    
   102   51  119 1    
   103   52   53 2    
   104   52   54 am   BACKBONE|DICT|INTERRES
   105   54   55 1    
   106   54  120 1    
   107   55   56 1    
   108   55   57 1    
   109   55  121 1    
   110   56  122 1    
   111   56  123 1    
   112   56  124 1    
   113   57   58 2    
   114   57   59 am   BACKBONE|DICT|INTERRES
   115   59   60 1    
   116   59  125 1    
   117   60   61 1    
   118   60   62 1    
   119   60  126 1    
   120   61  127 1    
   121   61  128 1    
   122   61  129 1    
   123   62   63 2    
   124   62   64 am   BACKBONE|DICT|INTERRES
   125   64   65 1    
   126   64  130 1    
   127   65   66 1    
   128   65   69 1    
   129   65  131 1    
   130   66   67 am   BACKBONE|DICT|INTERRES
   131   66   68 2    
   132   67  132 1    
   133   67  133 1    
   134   69   70 1    
   135   69  134 1    
   136   69  135 1    
   137   70   71 1    
   138   71  136 1    
   139   71  137 1    
@<TRIPOS>SUBSTRUCTURE
     1 UNK         1 GROUP             0       ****    0 ROOT    
