@<TRIPOS>MOLECULE
3R137
137   139    1
SMALL
USER_CHARGES


@<TRIPOS>ATOM
      1 CA         31.1745    0.8400   -0.2833 C.3       0 UNK        -0.2020 
      2 C          30.2517   -0.1714   -0.9462 C.2       0 UNK         0.4855 
      3 O          29.6292    0.1450   -1.9567 O.2       0 UNK        -0.5197 
      4 N          30.1656   -1.3838   -0.3848 N.am      1 UNK        -0.4892 
      5 CA         29.3300   -2.4910   -0.8643 C.3       1 UNK         0.0835 
      6 C6         29.6735   -3.7825   -0.0771 C.3       12 UNK        -0.0855 
      7 S7         28.9902   -5.3121   -0.8012 S.3       12 UNK        -0.2931 
      8 C8         30.3899   -5.9051   -1.8040 C.3       12 UNK         0.0378 
      9 C9         30.5940   -5.0385   -3.0368 C.ar      12 UNK        -0.0802 
     10 C10        31.7074   -4.1988   -3.1451 C.ar      12 UNK        -0.0944 
     11 C11        31.8857   -3.4017   -4.2806 C.ar      12 UNK        -0.0787 
     12 C12        30.9331   -3.4408   -5.3034 C.ar      12 UNK        -0.0862 
     13 C13        29.8135   -4.2724   -5.2043 C.ar      12 UNK        -0.0733 
     14 C14        29.6588   -5.0794   -4.0741 C.ar      12 UNK        -0.0832 
     15 C15        28.7933   -4.3199   -6.3330 C.3       12 UNK         0.0240 
     16 S16        27.0920   -4.0262   -5.7493 S.3       12 UNK        -0.2522 
     17 C17        26.2392   -3.7912   -7.3472 C.3       12 UNK        -0.0967 
     18 CA         25.8073   -2.3358   -7.6642 C.3       5 UNK         0.0660 
     19 N          24.7008   -1.8734   -6.8206 N.am      5 UNK        -0.4015 
     20 C          23.6078   -1.2590   -7.2988 C.2       4 UNK         0.4946 
     21 O          23.4021   -1.0567   -8.4966 O.2       4 UNK        -0.5353 
     22 CA         22.5506   -0.7848   -6.2862 C.3       4 UNK         0.0277 
     23 CB         21.5224   -1.8976   -6.0248 C.3       4 UNK        -0.1981 
     24 N          23.1049   -0.3294   -5.0115 N.am      4 UNK        -0.4209 
     25 C          23.9128    0.7283   -4.8525 C.2       3 UNK         0.4942 
     26 O          24.2899    1.4565   -5.7717 O.2       3 UNK        -0.5208 
     27 CA         24.4076    1.0000   -3.4197 C.3       3 UNK         0.0250 
     28 CB         23.4230    1.9232   -2.6840 C.3       3 UNK        -0.1990 
     29 N          24.6496   -0.2006   -2.6054 N.am      3 UNK        -0.4232 
     30 C          25.4185   -1.2422   -2.9548 C.2       2 UNK         0.4993 
     31 O          25.9311   -1.3762   -4.0682 O.2       2 UNK        -0.5286 
     32 CA         25.6186   -2.3405   -1.9063 C.3       2 UNK         0.0209 
     33 CB         24.8993   -3.6301   -2.3351 C.3       2 UNK        -0.1931 
     34 N          27.0492   -2.6094   -1.7765 N.am      2 UNK        -0.4546 
     35 C          27.8241   -2.1474   -0.7869 C.2       1 UNK         0.5154 
     36 O          27.3941   -1.5007    0.1733 O.2       1 UNK        -0.5181 
     37 C          26.9783   -1.3365   -7.6363 C.2       5 UNK         0.5014 
     38 O          27.6451   -1.1721   -8.6589 O.2       5 UNK        -0.5248 
     39 N          27.2014   -0.6685   -6.4928 N.am      6 UNK        -0.4434 
     40 CA         28.2830    0.2921   -6.2604 C.3       6 UNK         0.0363 
     41 CB         28.1783    0.8444   -4.8354 C.3       6 UNK        -0.1936 
     42 C          28.3158    1.4576   -7.2552 C.2       6 UNK         0.5081 
     43 O          29.4056    1.8943   -7.6223 O.2       6 UNK        -0.5248 
     44 N          27.1345    1.9141   -7.6917 N.am      7 UNK        -0.4718 
     45 CA         26.9675    2.9586   -8.7040 C.3       7 UNK         0.0273 
     46 CB         25.4874    3.3692   -8.7584 C.3       7 UNK        -0.1935 
     47 C          27.4645    2.5482  -10.1030 C.2       7 UNK         0.5018 
     48 O          27.9026    3.4156  -10.8590 O.2       7 UNK        -0.5186 
     49 N          27.3939    1.2480  -10.4209 N.am      8 UNK        -0.4240 
     50 CA         27.8830    0.6742  -11.6756 C.3       8 UNK         0.0235 
     51 CB         26.9981   -0.5187  -12.0745 C.3       8 UNK        -0.2000 
     52 C          29.3520    0.2442  -11.5540 C.2       8 UNK         0.4941 
     53 O          30.1323    0.4843  -12.4755 O.2       8 UNK        -0.5273 
     54 N          29.7035   -0.3756  -10.4186 N.am      9 UNK        -0.4262 
     55 CA         31.0473   -0.8708  -10.1088 C.3       9 UNK         0.0264 
     56 CB         30.9461   -1.8583   -8.9347 C.3       9 UNK        -0.1955 
     57 C          32.0703    0.2341   -9.7851 C.2       9 UNK         0.5031 
     58 O          33.2696   -0.0449   -9.8153 O.2       9 UNK        -0.5390 
     59 N          31.5860    1.4408   -9.4543 N.am      10 UNK        -0.4204 
     60 CA         32.3327    2.6002   -8.9507 C.3       10 UNK         0.0237 
     61 CB         33.3502    3.1194   -9.9898 C.3       10 UNK        -0.1985 
     62 C          32.9496    2.3292   -7.5638 C.2       10 UNK         0.4970 
     63 O          34.0830    2.7353   -7.2998 O.2       10 UNK        -0.4914 
     64 N          32.1820    1.6439   -6.7056 N.am      11 UNK        -0.4285 
     65 CA         32.5498    1.3286   -5.3158 C.3       11 UNK         0.1007 
     66 C          32.2795    2.4982   -4.3235 C.2       11 UNK         0.5703 
     67 N          31.4792    3.4972   -4.6814 N.am      11 UNK        -0.7361 
     68 O          32.8255    2.5177   -3.2237 O.2       11 UNK        -0.4986 
     69 C69        31.8939   -0.0011   -4.8497 C.3       12 UNK        -0.0947 
     70 S70        32.8990   -0.9017   -3.6201 S.3       12 UNK        -0.2240 
     71 C71        33.1232   -2.5237   -4.4132 C.3       12 UNK         0.0194 
     72 H72        31.6187    0.4515    0.6328 H         1 UNK         0.0906 
     73 H73        31.9813    1.1081   -0.9651 H         1 UNK         0.0906 
     74 H74        30.6226    1.7464   -0.0361 H         1 UNK         0.0906 
     75 H75        30.6788   -1.5645    0.4657 H         1 UNK         0.3140 
     76 H76        29.5858   -2.6381   -1.9158 H         1 UNK         0.1085 
     77 H77        29.3210   -3.7054    0.9535 H         1 UNK         0.0836 
     78 H78        30.7565   -3.8977   -0.0065 H         1 UNK         0.0836 
     79 H79        31.2935   -5.9447   -1.1937 H         1 UNK         0.0731 
     80 H80        30.1893   -6.9306   -2.1176 H         1 UNK         0.0731 
     81 H81        32.4381   -4.1657   -2.3484 H         1 UNK         0.1312 
     82 H82        31.0718   -2.8322   -6.1843 H         1 UNK         0.1406 
     83 H83        28.7986   -5.7307   -3.9936 H         1 UNK         0.1631 
     84 H84        28.8438   -5.2942   -6.8208 H         1 UNK         0.0717 
     85 H85        29.0377   -3.5762   -7.0929 H         1 UNK         0.0717 
     86 H86        26.8734   -4.1665   -8.1526 H         1 UNK         0.0934 
     87 H87        25.3614   -4.4392   -7.3551 H         1 UNK         0.0934 
     88 H88        25.4721   -2.3548   -8.7035 H         1 UNK         0.0739 
     89 H89        24.8292   -1.9623   -5.8191 H         1 UNK         0.3093 
     90 H90        22.0284    0.0626   -6.7359 H         1 UNK         0.0818 
     91 H91        20.7103   -1.5472   -5.3874 H         1 UNK         0.0819 
     92 H92        21.0731   -2.2404   -6.9581 H         1 UNK         0.0819 
     93 H93        21.9774   -2.7651   -5.5448 H         1 UNK         0.0819 
     94 H94        22.8598   -0.8638   -4.1910 H         1 UNK         0.3041 
     95 H95        25.3578    1.5279   -3.4989 H         1 UNK         0.0784 
     96 H96        23.2395    2.8340   -3.2562 H         1 UNK         0.0793 
     97 H97        22.4584    1.4401   -2.5226 H         1 UNK         0.0793 
     98 H98        23.8133    2.2285   -1.7129 H         1 UNK         0.0793 
     99 H99        24.2545   -0.1878   -1.6758 H         1 UNK         0.3024 
    100 H100       25.2018   -2.0158   -0.9501 H         1 UNK         0.1171 
    101 H101       23.8256   -3.4656   -2.4331 H         1 UNK         0.0786 
    102 H102       25.0407   -4.4232   -1.6006 H         1 UNK         0.0786 
    103 H103       25.2620   -3.9985   -3.2955 H         1 UNK         0.0786 
    104 H104       27.4769   -3.0929   -2.5545 H         1 UNK         0.2977 
    105 H105       26.6490   -0.9123   -5.6716 H         1 UNK         0.3127 
    106 H106       29.2229   -0.2535   -6.3517 H         1 UNK         0.0770 
    107 H107       27.2529    1.3990   -4.6915 H         1 UNK         0.0814 
    108 H108       28.9990    1.5260   -4.6094 H         1 UNK         0.0814 
    109 H109       28.2087    0.0412   -4.1004 H         1 UNK         0.0814 
    110 H110       26.2911    1.5117   -7.3026 H         1 UNK         0.2983 
    111 H111       27.5549    3.8246   -8.3906 H         1 UNK         0.0947 
    112 H112       25.3288    4.1673   -9.4850 H         1 UNK         0.0806 
    113 H113       25.1424    3.7377   -7.7919 H         1 UNK         0.0806 
    114 H114       24.8470    2.5335   -9.0444 H         1 UNK         0.0806 
    115 H115       27.0766    0.5935   -9.7161 H         1 UNK         0.3000 
    116 H116       27.8163    1.4212  -12.4699 H         1 UNK         0.0850 
    117 H117       27.3335   -0.9537  -13.0170 H         1 UNK         0.0810 
    118 H118       25.9607   -0.2128  -12.2103 H         1 UNK         0.0810 
    119 H119       27.0172   -1.3110  -11.3252 H         1 UNK         0.0810 
    120 H120       28.9751   -0.5861   -9.7374 H         1 UNK         0.3040 
    121 H121       31.4196   -1.4122  -10.9811 H         1 UNK         0.0766 
    122 H122       31.9235   -2.2719   -8.6819 H         1 UNK         0.0812 
    123 H123       30.2924   -2.6962   -9.1776 H         1 UNK         0.0812 
    124 H124       30.5524   -1.3742   -8.0412 H         1 UNK         0.0812 
    125 H125       30.5787    1.5283   -9.3862 H         1 UNK         0.3205 
    126 H126       31.5933    3.3883   -8.7997 H         1 UNK         0.0754 
    127 H127       33.7872    4.0652   -9.6672 H         1 UNK         0.0769 
    128 H128       32.8755    3.2949  -10.9552 H         1 UNK         0.0769 
    129 H129       34.1723    2.4196  -10.1420 H         1 UNK         0.0769 
    130 H130       31.2297    1.4377   -6.9865 H         1 UNK         0.2981 
    131 H131       33.6308    1.1759   -5.3072 H         1 UNK         0.0541 
    132 H132       31.0322    3.5005   -5.5839 H         1 UNK         0.3459 
    133 H133       31.3218    4.2549   -4.0363 H         1 UNK         0.3459 
    134 H134       31.7425   -0.6543   -5.7085 H         1 UNK         0.0612 
    135 H135       30.9028    0.1646   -4.4286 H         1 UNK         0.0612 
    136 H136       33.3935   -2.3892   -5.4618 H         1 UNK         0.0624 
    137 H137       33.9734   -3.0223   -3.9454 H         1 UNK         0.0624 
@<TRIPOS>BOND
     1    1    2 1    
     2    1   72 1    
     3    1   73 1    
     4    1   74 1    
     5    2    3 2    
     6    2    4 am   BACKBONE|DICT|INTERRES
     7    4    5 1    
     8    4   75 1    
     9    5    6 1    
    10    5   35 1    
    11    5   76 1    
    12    6    7 1    
    13    6   77 1    
    14    6   78 1    
    15    7    8 1    
    16    8    9 1    
    17    8   79 1    
    18    8   80 1    
    19    9   10 ar   
    20    9   14 ar   
    21   10   11 ar   
    22   10   81 1    
    23   11   12 ar   
    24   11   71 1    
    25   12   13 ar   
    26   12   82 1    
    27   13   14 ar   
    28   13   15 1    
    29   14   83 1    
    30   15   16 1    
    31   15   84 1    
    32   15   85 1    
    33   16   17 1    
    34   17   18 1    
    35   17   86 1    
    36   17   87 1    
    37   18   19 1    
    38   18   37 1    
    39   18   88 1    
    40   19   20 am   BACKBONE|DICT|INTERRES
    41   19   89 1    
    42   20   21 2    
    43   20   22 1    
    44   22   23 1    
    45   22   24 1    
    46   22   90 1    
    47   23   91 1    
    48   23   92 1    
    49   23   93 1    
    50   24   25 am   BACKBONE|DICT|INTERRES
    51   24   94 1    
    52   25   26 2    
    53   25   27 1    
    54   27   28 1    
    55   27   29 1    
    56   27   95 1    
    57   28   96 1    
    58   28   97 1    
    59   28   98 1    
    60   29   30 am   BACKBONE|DICT|INTERRES
    61   29   99 1    
    62   30   31 2    
    63   30   32 1    
    64   32   33 1    
    65   32   34 1    
    66   32  100 1    
    67   33  101 1    
    68   33  102 1    
    69   33  103 1    
    70   34   35 am   BACKBONE|DICT|INTERRES
    71   34  104 1    
    72   35   36 2    
    73   37   38 2    
    74   37   39 am   BACKBONE|DICT|INTERRES
    75   39   40 1    
    76   39  105 1    
    77   40   41 1    
    78   40   42 1    
    79   40  106 1    
    80   41  107 1    
    81   41  108 1    
    82   41  109 1    
    83   42   43 2    
    84   42   44 am   BACKBONE|DICT|INTERRES
    85   44   45 1    
    86   44  110 1    
    87   45   46 1    
    88   45   47 1    
    89   45  111 1    
    90   46  112 1    
    91   46  113 1    
    92   46  114 1    
    93   47   48 2    
    94   47   49 am   BACKBONE|DICT|INTERRES
    95   49   50 1    
    96   49  115 1    
    97   50   51 1    
    98   50   52 1    
    99   50  116 1    
   100   51  117 1    
   101   51  118 1    
   102   51  119 1    
   103   52   53 2    
   104   52   54 am   BACKBONE|DICT|INTERRES
   105   54   55 1    
   106   54  120 1    
   107   55   56 1    
   108   55   57 1    
   109   55  121 1    
   110   56  122 1    
   111   56  123 1    
   112   56  124 1    
   113   57   58 2    
   114   57   59 am   BACKBONE|DICT|INTERRES
   115   59   60 1    
   116   59  125 1    
   117   60   61 1    
   118   60   62 1    
   119   60  126 1    
   120   61  127 1    
   121   61  128 1    
   122   61  129 1    
   123   62   63 2    
   124   62   64 am   BACKBONE|DICT|INTERRES
   125   64   65 1    
   126   64  130 1    
   127   65   66 1    
   128   65   69 1    
   129   65  131 1    
   130   66   67 am   BACKBONE|DICT|INTERRES
   131   66   68 2    
   132   67  132 1    
   133   67  133 1    
   134   69   70 1    
   135   69  134 1    
   136   69  135 1    
   137   70   71 1    
   138   71  136 1    
   139   71  137 1    
@<TRIPOS>SUBSTRUCTURE
     1 UNK         1 GROUP             0       ****    0 ROOT    
