@<TRIPOS>MOLECULE
3R137
137   139    1
SMALL
USER_CHARGES


@<TRIPOS>ATOM
      1 CA         26.3529   -6.9661    2.0522 C.3       0 UNK        -0.2020 
      2 C          26.9355   -6.0214    1.0108 C.2       0 UNK         0.4855 
      3 O          27.4305   -6.4860   -0.0155 O.2       0 UNK        -0.5197 
      4 N          26.8871   -4.7097    1.2859 N.am      1 UNK        -0.4892 
      5 CA         27.3146   -3.5990    0.4251 C.3       1 UNK         0.0835 
      6 C6         28.7988   -3.6958   -0.0413 C.3       12 UNK        -0.0855 
      7 S7         29.6592   -2.0829   -0.0645 S.3       12 UNK        -0.2931 
      8 C8         29.1530   -1.3337   -1.6475 C.3       12 UNK         0.0378 
      9 C9         29.8295   -1.9658   -2.8563 C.ar      12 UNK        -0.0802 
     10 C10        31.0008   -1.4194   -3.3877 C.ar      12 UNK        -0.0944 
     11 C11        31.5800   -1.9597   -4.5427 C.ar      12 UNK        -0.0787 
     12 C12        30.9928   -3.0793   -5.1474 C.ar      12 UNK        -0.0862 
     13 C13        29.8362   -3.6513   -4.6067 C.ar      12 UNK        -0.0733 
     14 C14        29.2577   -3.0772   -3.4744 C.ar      12 UNK        -0.0832 
     15 C15        29.2316   -4.9217   -5.1944 C.3       12 UNK         0.0240 
     16 S16        28.1424   -4.6282   -6.6251 S.3       12 UNK        -0.2522 
     17 C17        26.7975   -3.5957   -5.9347 C.3       12 UNK        -0.0967 
     18 CA         26.5252   -2.3350   -6.7900 C.3       5 UNK         0.0660 
     19 N          25.3257   -1.6147   -6.3601 N.am      5 UNK        -0.4015 
     20 C          24.6704   -0.7363   -7.1358 C.2       4 UNK         0.4946 
     21 O          24.9738   -0.4969   -8.3050 O.2       4 UNK        -0.5353 
     22 CA         23.5099    0.0422   -6.4911 C.3       4 UNK         0.0277 
     23 CB         22.2077   -0.7713   -6.5596 C.3       4 UNK        -0.1981 
     24 N          23.7802    0.4232   -5.1030 N.am      4 UNK        -0.4209 
     25 C          24.7798    1.2303   -4.7190 C.2       3 UNK         0.4942 
     26 O          25.5245    1.8107   -5.5070 O.2       3 UNK        -0.5208 
     27 CA         25.0260    1.3885   -3.2081 C.3       3 UNK         0.0250 
     28 CB         24.4009    2.6971   -2.6996 C.3       3 UNK        -0.1990 
     29 N          24.5487    0.2692   -2.3866 N.am      3 UNK        -0.4232 
     30 C          24.9624   -1.0026   -2.4862 C.2       2 UNK         0.4993 
     31 O          25.7630   -1.3947   -3.3394 O.2       2 UNK        -0.5286 
     32 CA         24.3462   -1.9887   -1.4794 C.3       2 UNK         0.0209 
     33 CB         23.5602   -3.1124   -2.1878 C.3       2 UNK        -0.1931 
     34 N          25.3511   -2.4941   -0.5321 N.am      2 UNK        -0.4546 
     35 C          26.3155   -3.4044   -0.7383 C.2       1 UNK         0.5154 
     36 O          26.4199   -4.0840   -1.7593 O.2       1 UNK        -0.5181 
     37 C          27.7333   -1.3821   -6.8646 C.2       5 UNK         0.5014 
     38 O          28.4865   -1.4558   -7.8345 O.2       5 UNK        -0.5248 
     39 N          27.8666   -0.4677   -5.8908 N.am      6 UNK        -0.4434 
     40 CA         28.9167    0.5556   -5.8800 C.3       6 UNK         0.0363 
     41 CB         28.8695    1.3617   -4.5735 C.3       6 UNK        -0.1936 
     42 C          28.8498    1.4919   -7.0979 C.2       6 UNK         0.5081 
     43 O          29.8823    1.7722   -7.7076 O.2       6 UNK        -0.5248 
     44 N          27.6301    1.9175   -7.4547 N.am      7 UNK        -0.4718 
     45 CA         27.3337    2.7081   -8.6492 C.3       7 UNK         0.0273 
     46 CB         25.8708    3.1768   -8.6033 C.3       7 UNK        -0.1935 
     47 C          27.6227    1.9515   -9.9564 C.2       7 UNK         0.5018 
     48 O          28.1792    2.5473  -10.8789 O.2       7 UNK        -0.5186 
     49 N          27.2621    0.6601  -10.0098 N.am      8 UNK        -0.4240 
     50 CA         27.5291   -0.2253  -11.1477 C.3       8 UNK         0.0235 
     51 CB         26.7353   -1.5323  -10.9926 C.3       8 UNK        -0.2000 
     52 C          29.0277   -0.5156  -11.3379 C.2       8 UNK         0.4941 
     53 O          29.5095   -0.4808  -12.4710 O.2       8 UNK        -0.5273 
     54 N          29.7375   -0.7808  -10.2322 N.am      9 UNK        -0.4262 
     55 CA         31.1863   -0.9944  -10.1982 C.3       9 UNK         0.0264 
     56 CB         31.5783   -1.5875   -8.8339 C.3       9 UNK        -0.1955 
     57 C          31.9942    0.2860  -10.4705 C.2       9 UNK         0.5031 
     58 O          33.1104    0.1891  -10.9825 O.2       9 UNK        -0.5390 
     59 N          31.4269    1.4459  -10.1044 N.am      10 UNK        -0.4204 
     60 CA         32.0190    2.7882  -10.1427 C.3       10 UNK         0.0237 
     61 CB         32.3077    3.2334  -11.5922 C.3       10 UNK        -0.1985 
     62 C          33.2380    2.9170   -9.2075 C.2       10 UNK         0.4970 
     63 O          34.1892    3.6332   -9.5256 O.2       10 UNK        -0.4914 
     64 N          33.1843    2.2119   -8.0709 N.am      11 UNK        -0.4285 
     65 CA         34.2363    2.1681   -7.0450 C.3       11 UNK         0.1007 
     66 C          34.2528    3.3871   -6.0763 C.2       11 UNK         0.5703 
     67 N          33.2657    4.2754   -6.1054 N.am      11 UNK        -0.7361 
     68 O          35.1906    3.5392   -5.2968 O.2       11 UNK        -0.4986 
     69 C69        34.2332    0.8090   -6.2943 C.3       12 UNK        -0.0947 
     70 S70        32.6337    0.4202   -5.5116 S.3       12 UNK        -0.2240 
     71 C71        32.8490   -1.3452   -5.1223 C.3       12 UNK         0.0194 
     72 H72        25.9582   -6.4319    2.9163 H         1 UNK         0.0906 
     73 H73        25.5426   -7.5503    1.6166 H         1 UNK         0.0906 
     74 H74        27.1197   -7.6565    2.4027 H         1 UNK         0.0906 
     75 H75        26.4570   -4.4227    2.1551 H         1 UNK         0.3140 
     76 H76        27.2386   -2.7198    1.0675 H         1 UNK         0.1085 
     77 H77        28.9098   -4.2170   -0.9915 H         1 UNK         0.0836 
     78 H78        29.3587   -4.3067    0.6684 H         1 UNK         0.0836 
     79 H79        29.4000   -0.2721   -1.6066 H         1 UNK         0.0731 
     80 H80        28.0697   -1.3783   -1.7569 H         1 UNK         0.0731 
     81 H81        31.4514   -0.5565   -2.9167 H         1 UNK         0.1312 
     82 H82        31.4404   -3.5158   -6.0297 H         1 UNK         0.1406 
     83 H83        28.3550   -3.5045   -3.0700 H         1 UNK         0.1631 
     84 H84        28.6703   -5.4629   -4.4307 H         1 UNK         0.0717 
     85 H85        30.0354   -5.5912   -5.5038 H         1 UNK         0.0717 
     86 H86        25.8996   -4.2146   -5.9000 H         1 UNK         0.0934 
     87 H87        26.9998   -3.3220   -4.9006 H         1 UNK         0.0934 
     88 H88        26.3371   -2.6825   -7.8084 H         1 UNK         0.0739 
     89 H89        25.0735   -1.7008   -5.3828 H         1 UNK         0.3093 
     90 H90        23.3713    0.9604   -7.0661 H         1 UNK         0.0818 
     91 H91        21.3601   -0.1961   -6.1867 H         1 UNK         0.0819 
     92 H92        21.9782   -1.0515   -7.5888 H         1 UNK         0.0819 
     93 H93        22.2720   -1.6919   -5.9781 H         1 UNK         0.0819 
     94 H94        23.2045    0.0018   -4.3892 H         1 UNK         0.3041 
     95 H95        26.1065    1.4515   -3.0664 H         1 UNK         0.0784 
     96 H96        24.7610    3.5512   -3.2756 H         1 UNK         0.0793 
     97 H97        23.3133    2.6846   -2.7816 H         1 UNK         0.0793 
     98 H98        24.6586    2.8826   -1.6567 H         1 UNK         0.0793 
     99 H99        23.8807    0.5058   -1.6665 H         1 UNK         0.3024 
    100 H100       23.6244   -1.4438   -0.8683 H         1 UNK         0.1171 
    101 H101       23.1703   -3.8370   -1.4730 H         1 UNK         0.0786 
    102 H102       22.7088   -2.7033   -2.7328 H         1 UNK         0.0786 
    103 H103       24.1711   -3.6509   -2.9129 H         1 UNK         0.0786 
    104 H104       25.3552   -2.0159    0.3588 H         1 UNK         0.2977 
    105 H105       27.2098   -0.4714   -5.1224 H         1 UNK         0.3127 
    106 H106       29.8658    0.0221   -5.9228 H         1 UNK         0.0770 
    107 H107       27.9947    2.0093   -4.5239 H         1 UNK         0.0814 
    108 H108       29.7497    2.0001   -4.4872 H         1 UNK         0.0814 
    109 H109       28.8549    0.7104   -3.7025 H         1 UNK         0.0814 
    110 H110       26.8441    1.6928   -6.8481 H         1 UNK         0.2983 
    111 H111       27.9771    3.5905   -8.6299 H         1 UNK         0.0947 
    112 H112       25.6279    3.7878   -9.4737 H         1 UNK         0.0806 
    113 H113       25.6767    3.7813   -7.7171 H         1 UNK         0.0806 
    114 H114       25.1776    2.3347   -8.5896 H         1 UNK         0.0806 
    115 H115       26.7680    0.2569   -9.2211 H         1 UNK         0.3000 
    116 H116       27.1743    0.2787  -12.0493 H         1 UNK         0.0850 
    117 H117       26.8931   -2.1884  -11.8495 H         1 UNK         0.0810 
    118 H118       25.6644   -1.3400  -10.9237 H         1 UNK         0.0810 
    119 H119       27.0337   -2.0837  -10.1008 H         1 UNK         0.0810 
    120 H120       29.2446   -0.8709   -9.3426 H         1 UNK         0.3040 
    121 H121       31.4411   -1.7190  -10.9743 H         1 UNK         0.0766 
    122 H122       31.3098   -0.9202   -8.0137 H         1 UNK         0.0812 
    123 H123       32.6531   -1.7637   -8.7744 H         1 UNK         0.0812 
    124 H124       31.0809   -2.5417   -8.6587 H         1 UNK         0.0812 
    125 H125       30.5425    1.3918   -9.6083 H         1 UNK         0.3205 
    126 H126       31.2589    3.4592   -9.7397 H         1 UNK         0.0754 
    127 H127       32.6076    4.2814  -11.6266 H         1 UNK         0.0769 
    128 H128       31.4224    3.1295  -12.2199 H         1 UNK         0.0769 
    129 H129       33.1108    2.6510  -12.0446 H         1 UNK         0.0769 
    130 H130       32.3428    1.6921   -7.8596 H         1 UNK         0.2981 
    131 H131       35.1926    2.2202   -7.5688 H         1 UNK         0.0541 
    132 H132       33.2919    5.0640   -5.4789 H         1 UNK         0.3459 
    133 H133       32.4899    4.1539   -6.7357 H         1 UNK         0.3459 
    134 H134       35.0167    0.7772   -5.5350 H         1 UNK         0.0612 
    135 H135       34.4692    0.0112   -7.0003 H         1 UNK         0.0612 
    136 H136       33.1511   -1.8725   -6.0284 H         1 UNK         0.0624 
    137 H137       33.6629   -1.4584   -4.4052 H         1 UNK         0.0624 
@<TRIPOS>BOND
     1    1    2 1    
     2    1   72 1    
     3    1   73 1    
     4    1   74 1    
     5    2    3 2    
     6    2    4 am   BACKBONE|DICT|INTERRES
     7    4    5 1    
     8    4   75 1    
     9    5    6 1    
    10    5   35 1    
    11    5   76 1    
    12    6    7 1    
    13    6   77 1    
    14    6   78 1    
    15    7    8 1    
    16    8    9 1    
    17    8   79 1    
    18    8   80 1    
    19    9   10 ar   
    20    9   14 ar   
    21   10   11 ar   
    22   10   81 1    
    23   11   12 ar   
    24   11   71 1    
    25   12   13 ar   
    26   12   82 1    
    27   13   14 ar   
    28   13   15 1    
    29   14   83 1    
    30   15   16 1    
    31   15   84 1    
    32   15   85 1    
    33   16   17 1    
    34   17   18 1    
    35   17   86 1    
    36   17   87 1    
    37   18   19 1    
    38   18   37 1    
    39   18   88 1    
    40   19   20 am   BACKBONE|DICT|INTERRES
    41   19   89 1    
    42   20   21 2    
    43   20   22 1    
    44   22   23 1    
    45   22   24 1    
    46   22   90 1    
    47   23   91 1    
    48   23   92 1    
    49   23   93 1    
    50   24   25 am   BACKBONE|DICT|INTERRES
    51   24   94 1    
    52   25   26 2    
    53   25   27 1    
    54   27   28 1    
    55   27   29 1    
    56   27   95 1    
    57   28   96 1    
    58   28   97 1    
    59   28   98 1    
    60   29   30 am   BACKBONE|DICT|INTERRES
    61   29   99 1    
    62   30   31 2    
    63   30   32 1    
    64   32   33 1    
    65   32   34 1    
    66   32  100 1    
    67   33  101 1    
    68   33  102 1    
    69   33  103 1    
    70   34   35 am   BACKBONE|DICT|INTERRES
    71   34  104 1    
    72   35   36 2    
    73   37   38 2    
    74   37   39 am   BACKBONE|DICT|INTERRES
    75   39   40 1    
    76   39  105 1    
    77   40   41 1    
    78   40   42 1    
    79   40  106 1    
    80   41  107 1    
    81   41  108 1    
    82   41  109 1    
    83   42   43 2    
    84   42   44 am   BACKBONE|DICT|INTERRES
    85   44   45 1    
    86   44  110 1    
    87   45   46 1    
    88   45   47 1    
    89   45  111 1    
    90   46  112 1    
    91   46  113 1    
    92   46  114 1    
    93   47   48 2    
    94   47   49 am   BACKBONE|DICT|INTERRES
    95   49   50 1    
    96   49  115 1    
    97   50   51 1    
    98   50   52 1    
    99   50  116 1    
   100   51  117 1    
   101   51  118 1    
   102   51  119 1    
   103   52   53 2    
   104   52   54 am   BACKBONE|DICT|INTERRES
   105   54   55 1    
   106   54  120 1    
   107   55   56 1    
   108   55   57 1    
   109   55  121 1    
   110   56  122 1    
   111   56  123 1    
   112   56  124 1    
   113   57   58 2    
   114   57   59 am   BACKBONE|DICT|INTERRES
   115   59   60 1    
   116   59  125 1    
   117   60   61 1    
   118   60   62 1    
   119   60  126 1    
   120   61  127 1    
   121   61  128 1    
   122   61  129 1    
   123   62   63 2    
   124   62   64 am   BACKBONE|DICT|INTERRES
   125   64   65 1    
   126   64  130 1    
   127   65   66 1    
   128   65   69 1    
   129   65  131 1    
   130   66   67 am   BACKBONE|DICT|INTERRES
   131   66   68 2    
   132   67  132 1    
   133   67  133 1    
   134   69   70 1    
   135   69  134 1    
   136   69  135 1    
   137   70   71 1    
   138   71  136 1    
   139   71  137 1    
@<TRIPOS>SUBSTRUCTURE
     1 UNK         1 GROUP             0       ****    0 ROOT    
