@<TRIPOS>MOLECULE
3R137
137   139    1
SMALL
USER_CHARGES


@<TRIPOS>ATOM
      1 CA         26.4321   -5.7361    0.7876 C.3       0 UNK        -0.2020 
      2 C          27.3363   -5.6854   -0.4402 C.2       0 UNK         0.4855 
      3 O          27.4643   -6.6865   -1.1411 O.2       0 UNK        -0.5197 
      4 N          27.9871   -4.5553   -0.7458 N.am      1 UNK        -0.4892 
      5 CA         27.9263   -3.2706   -0.0370 C.3       1 UNK         0.0835 
      6 C6         29.1863   -2.4156   -0.3160 C.3       12 UNK        -0.0855 
      7 S7         30.7293   -3.1455    0.3492 S.3       12 UNK        -0.2931 
      8 C8         31.3156   -4.2888   -0.9539 C.3       12 UNK         0.0378 
      9 C9         31.1767   -3.7182   -2.3579 C.ar      12 UNK        -0.0802 
     10 C10        31.9117   -2.5918   -2.7402 C.ar      12 UNK        -0.0944 
     11 C11        31.7367   -2.0149   -4.0024 C.ar      12 UNK        -0.0787 
     12 C12        30.8063   -2.5847   -4.8828 C.ar      12 UNK        -0.0862 
     13 C13        30.0704   -3.7143   -4.5133 C.ar      12 UNK        -0.0733 
     14 C14        30.2769   -4.2918   -3.2602 C.ar      12 UNK        -0.0832 
     15 C15        29.0284   -4.2940   -5.4548 C.3       12 UNK         0.0240 
     16 S16        27.3484   -3.8187   -4.9280 S.3       12 UNK        -0.2522 
     17 C17        26.4967   -3.7221   -6.5416 C.3       12 UNK        -0.0967 
     18 CA         26.3384   -2.3040   -7.1609 C.3       5 UNK         0.0660 
     19 N          25.1650   -1.5715   -6.6756 N.am      5 UNK        -0.4015 
     20 C          24.5923   -0.5708   -7.3654 C.2       4 UNK         0.4946 
     21 O          24.9908   -0.1828   -8.4645 O.2       4 UNK        -0.5353 
     22 CA         23.3909    0.1364   -6.7190 C.3       4 UNK         0.0277 
     23 CB         22.1171   -0.7125   -6.8603 C.3       4 UNK        -0.1981 
     24 N          23.6137    0.4647   -5.3114 N.am      4 UNK        -0.4209 
     25 C          24.5388    1.3280   -4.8672 C.2       3 UNK         0.4942 
     26 O          25.2878    1.9713   -5.6005 O.2       3 UNK        -0.5208 
     27 CA         24.6796    1.4637   -3.3415 C.3       3 UNK         0.0250 
     28 CB         23.7191    2.5361   -2.8033 C.3       3 UNK        -0.1990 
     29 N          24.4637    0.2017   -2.6248 N.am      3 UNK        -0.4232 
     30 C          25.2084   -0.8989   -2.7958 C.2       2 UNK         0.4993 
     31 O          26.1470   -0.9733   -3.5925 O.2       2 UNK        -0.5286 
     32 CA         24.7945   -2.1409   -1.9961 C.3       2 UNK         0.0209 
     33 CB         23.9822   -3.1022   -2.8798 C.3       2 UNK        -0.1931 
     34 N          25.9760   -2.8359   -1.4899 N.am      2 UNK        -0.4546 
     35 C          26.6537   -2.4708   -0.3926 C.2       1 UNK         0.5154 
     36 O          26.3008   -1.5485    0.3439 O.2       1 UNK        -0.5181 
     37 C          27.6057   -1.4273   -7.1057 C.2       5 UNK         0.5014 
     38 O          28.4035   -1.4797   -8.0403 O.2       5 UNK        -0.5248 
     39 N          27.7424   -0.6048   -6.0531 N.am      6 UNK        -0.4434 
     40 CA         28.8064    0.3906   -5.9077 C.3       6 UNK         0.0363 
     41 CB         28.7222    1.0412   -4.5198 C.3       6 UNK        -0.1936 
     42 C          28.7914    1.4420   -7.0281 C.2       6 UNK         0.5081 
     43 O          29.8461    1.7366   -7.5893 O.2       6 UNK        -0.5248 
     44 N          27.5991    1.9460   -7.3773 N.am      7 UNK        -0.4718 
     45 CA         27.3878    2.8502   -8.5092 C.3       7 UNK         0.0273 
     46 CB         25.9504    3.3933   -8.4847 C.3       7 UNK        -0.1935 
     47 C          27.7010    2.1927   -9.8634 C.2       7 UNK         0.5018 
     48 O          28.3726    2.8144  -10.6867 O.2       7 UNK        -0.5186 
     49 N          27.2359    0.9499  -10.0629 N.am      8 UNK        -0.4240 
     50 CA         27.4698    0.1631  -11.2785 C.3       8 UNK         0.0235 
     51 CB         26.6021   -1.1052  -11.2550 C.3       8 UNK        -0.2000 
     52 C          28.9501   -0.1955  -11.4953 C.2       8 UNK         0.4941 
     53 O          29.4442   -0.0665  -12.6160 O.2       8 UNK        -0.5273 
     54 N          29.6328   -0.6232  -10.4247 N.am      9 UNK        -0.4262 
     55 CA         31.0607   -0.9545  -10.4246 C.3       9 UNK         0.0264 
     56 CB         31.3592   -1.8663   -9.2244 C.3       9 UNK        -0.1955 
     57 C          31.9827    0.2799  -10.4107 C.2       9 UNK         0.5031 
     58 O          33.1727    0.1299  -10.6922 O.2       9 UNK        -0.5390 
     59 N          31.4274    1.4581  -10.0890 N.am      10 UNK        -0.4204 
     60 CA         32.0896    2.7572   -9.9359 C.3       10 UNK         0.0237 
     61 CB         32.6842    3.2454  -11.2747 C.3       10 UNK        -0.1985 
     62 C          33.1043    2.7475   -8.7777 C.2       10 UNK         0.4970 
     63 O          34.2781    3.0700   -8.9745 O.2       10 UNK        -0.4914 
     64 N          32.6209    2.3736   -7.5900 N.am      11 UNK        -0.4285 
     65 CA         33.3816    2.3064   -6.3368 C.3       11 UNK         0.1007 
     66 C          32.5686    2.8574   -5.1329 C.2       11 UNK         0.5703 
     67 N          33.1199    2.8066   -3.9271 N.am      11 UNK        -0.7361 
     68 O          31.4583    3.3651   -5.2754 O.2       11 UNK        -0.4986 
     69 C69        34.0119    0.9023   -6.1043 C.3       12 UNK        -0.0947 
     70 S70        32.8287   -0.4892   -6.1254 S.3       12 UNK        -0.2240 
     71 C71        32.5276   -0.7508   -4.3451 C.3       12 UNK         0.0194 
     72 H72        25.9719   -6.7197    0.8808 H         1 UNK         0.0906 
     73 H73        27.0021   -5.5518    1.6976 H         1 UNK         0.0906 
     74 H74        25.6294   -5.0032    0.7171 H         1 UNK         0.0906 
     75 H75        28.5784   -4.5499   -1.5622 H         1 UNK         0.3140 
     76 H76        27.8890   -3.4581    1.0377 H         1 UNK         0.1085 
     77 H77        29.0859   -1.4402    0.1649 H         1 UNK         0.0836 
     78 H78        29.2839   -2.1965   -1.3801 H         1 UNK         0.0836 
     79 H79        32.3638   -4.5264   -0.7669 H         1 UNK         0.0731 
     80 H80        30.7741   -5.2316   -0.8628 H         1 UNK         0.0731 
     81 H81        32.6015   -2.1464   -2.0359 H         1 UNK         0.1312 
     82 H82        30.6387   -2.1509   -5.8572 H         1 UNK         0.1406 
     83 H83        29.7120   -5.1722   -2.9857 H         1 UNK         0.1631 
     84 H84        29.1060   -5.3819   -5.4803 H         1 UNK         0.0717 
     85 H85        29.2184   -3.9477   -6.4720 H         1 UNK         0.0717 
     86 H86        27.0283   -4.3622   -7.2480 H         1 UNK         0.0934 
     87 H87        25.5164   -4.1886   -6.4331 H         1 UNK         0.0934 
     88 H88        26.1542   -2.4814   -8.2229 H         1 UNK         0.0739 
     89 H89        24.8331   -1.7978   -5.7500 H         1 UNK         0.3093 
     90 H90        23.2349    1.0743   -7.2569 H         1 UNK         0.0818 
     91 H91        21.2414   -0.1772   -6.4926 H         1 UNK         0.0819 
     92 H92        21.9275   -0.9580   -7.9064 H         1 UNK         0.0819 
     93 H93        22.1899   -1.6532   -6.3132 H         1 UNK         0.0819 
     94 H94        23.0377   -0.0095   -4.6318 H         1 UNK         0.3041 
     95 H95        25.7014    1.7880   -3.1348 H         1 UNK         0.0784 
     96 H96        23.8766    3.4892   -3.3106 H         1 UNK         0.0793 
     97 H97        22.6749    2.2574   -2.9506 H         1 UNK         0.0793 
     98 H98        23.8743    2.7097   -1.7382 H         1 UNK         0.0793 
     99 H99        23.7058    0.1846   -1.9571 H         1 UNK         0.3024 
    100 H100       24.1726   -1.8363   -1.1508 H         1 UNK         0.1171 
    101 H101       23.0777   -2.6216   -3.2548 H         1 UNK         0.0786 
    102 H102       23.6699   -3.9843   -2.3203 H         1 UNK         0.0786 
    103 H103       24.5544   -3.4418   -3.7437 H         1 UNK         0.0786 
    104 H104       26.3631   -3.5615   -2.0765 H         1 UNK         0.2977 
    105 H105       27.0778   -0.6775   -5.2860 H         1 UNK         0.3127 
    106 H106       29.7614   -0.1280   -5.9758 H         1 UNK         0.0770 
    107 H107       27.7873    1.5845   -4.3857 H         1 UNK         0.0814 
    108 H108       29.5367    1.7498   -4.3711 H         1 UNK         0.0814 
    109 H109       28.7938    0.2938   -3.7291 H         1 UNK         0.0814 
    110 H110       26.7790    1.7014   -6.8281 H         1 UNK         0.2983 
    111 H111       28.0708    3.6941   -8.3888 H         1 UNK         0.0947 
    112 H112       25.7738    4.0723   -9.3199 H         1 UNK         0.0806 
    113 H113       25.7541    3.9493   -7.5677 H         1 UNK         0.0806 
    114 H114       25.2137    2.5920   -8.5517 H         1 UNK         0.0806 
    115 H115       26.6479    0.5280   -9.3492 H         1 UNK         0.3000 
    116 H116       27.1523    0.7721  -12.1277 H         1 UNK         0.0850 
    117 H117       26.7297   -1.6824  -12.1716 H         1 UNK         0.0810 
    118 H118       25.5431   -0.8603  -11.1704 H         1 UNK         0.0810 
    119 H119       26.8627   -1.7563  -10.4206 H         1 UNK         0.0810 
    120 H120       29.1363   -0.7654   -9.5448 H         1 UNK         0.3040 
    121 H121       31.2852   -1.5130  -11.3358 H         1 UNK         0.0766 
    122 H122       32.4173   -2.1270   -9.1764 H         1 UNK         0.0812 
    123 H123       30.7953   -2.7973   -9.2830 H         1 UNK         0.0812 
    124 H124       31.0983   -1.3793   -8.2852 H         1 UNK         0.0812 
    125 H125       30.4533    1.4443   -9.8136 H         1 UNK         0.3205 
    126 H126       31.3063    3.4618   -9.6515 H         1 UNK         0.0754 
    127 H127       33.0759    4.2587  -11.1788 H         1 UNK         0.0769 
    128 H128       31.9274    3.2628  -12.0591 H         1 UNK         0.0769 
    129 H129       33.5045    2.6122  -11.6138 H         1 UNK         0.0769 
    130 H130       31.6282    2.1549   -7.5051 H         1 UNK         0.2981 
    131 H131       34.2084    3.0138   -6.4226 H         1 UNK         0.0541 
    132 H132       34.0416    2.4249   -3.7872 H         1 UNK         0.3459 
    133 H133       32.6079    3.1785   -3.1429 H         1 UNK         0.3459 
    134 H134       34.5952    0.8769   -5.1832 H         1 UNK         0.0612 
    135 H135       34.7340    0.7102   -6.8990 H         1 UNK         0.0612 
    136 H136       33.4920   -0.7793   -3.8358 H         1 UNK         0.0624 
    137 H137       31.9866    0.1091   -3.9494 H         1 UNK         0.0624 
@<TRIPOS>BOND
     1    1    2 1    
     2    1   72 1    
     3    1   73 1    
     4    1   74 1    
     5    2    3 2    
     6    2    4 am   BACKBONE|DICT|INTERRES
     7    4    5 1    
     8    4   75 1    
     9    5    6 1    
    10    5   35 1    
    11    5   76 1    
    12    6    7 1    
    13    6   77 1    
    14    6   78 1    
    15    7    8 1    
    16    8    9 1    
    17    8   79 1    
    18    8   80 1    
    19    9   10 ar   
    20    9   14 ar   
    21   10   11 ar   
    22   10   81 1    
    23   11   12 ar   
    24   11   71 1    
    25   12   13 ar   
    26   12   82 1    
    27   13   14 ar   
    28   13   15 1    
    29   14   83 1    
    30   15   16 1    
    31   15   84 1    
    32   15   85 1    
    33   16   17 1    
    34   17   18 1    
    35   17   86 1    
    36   17   87 1    
    37   18   19 1    
    38   18   37 1    
    39   18   88 1    
    40   19   20 am   BACKBONE|DICT|INTERRES
    41   19   89 1    
    42   20   21 2    
    43   20   22 1    
    44   22   23 1    
    45   22   24 1    
    46   22   90 1    
    47   23   91 1    
    48   23   92 1    
    49   23   93 1    
    50   24   25 am   BACKBONE|DICT|INTERRES
    51   24   94 1    
    52   25   26 2    
    53   25   27 1    
    54   27   28 1    
    55   27   29 1    
    56   27   95 1    
    57   28   96 1    
    58   28   97 1    
    59   28   98 1    
    60   29   30 am   BACKBONE|DICT|INTERRES
    61   29   99 1    
    62   30   31 2    
    63   30   32 1    
    64   32   33 1    
    65   32   34 1    
    66   32  100 1    
    67   33  101 1    
    68   33  102 1    
    69   33  103 1    
    70   34   35 am   BACKBONE|DICT|INTERRES
    71   34  104 1    
    72   35   36 2    
    73   37   38 2    
    74   37   39 am   BACKBONE|DICT|INTERRES
    75   39   40 1    
    76   39  105 1    
    77   40   41 1    
    78   40   42 1    
    79   40  106 1    
    80   41  107 1    
    81   41  108 1    
    82   41  109 1    
    83   42   43 2    
    84   42   44 am   BACKBONE|DICT|INTERRES
    85   44   45 1    
    86   44  110 1    
    87   45   46 1    
    88   45   47 1    
    89   45  111 1    
    90   46  112 1    
    91   46  113 1    
    92   46  114 1    
    93   47   48 2    
    94   47   49 am   BACKBONE|DICT|INTERRES
    95   49   50 1    
    96   49  115 1    
    97   50   51 1    
    98   50   52 1    
    99   50  116 1    
   100   51  117 1    
   101   51  118 1    
   102   51  119 1    
   103   52   53 2    
   104   52   54 am   BACKBONE|DICT|INTERRES
   105   54   55 1    
   106   54  120 1    
   107   55   56 1    
   108   55   57 1    
   109   55  121 1    
   110   56  122 1    
   111   56  123 1    
   112   56  124 1    
   113   57   58 2    
   114   57   59 am   BACKBONE|DICT|INTERRES
   115   59   60 1    
   116   59  125 1    
   117   60   61 1    
   118   60   62 1    
   119   60  126 1    
   120   61  127 1    
   121   61  128 1    
   122   61  129 1    
   123   62   63 2    
   124   62   64 am   BACKBONE|DICT|INTERRES
   125   64   65 1    
   126   64  130 1    
   127   65   66 1    
   128   65   69 1    
   129   65  131 1    
   130   66   67 am   BACKBONE|DICT|INTERRES
   131   66   68 2    
   132   67  132 1    
   133   67  133 1    
   134   69   70 1    
   135   69  134 1    
   136   69  135 1    
   137   70   71 1    
   138   71  136 1    
   139   71  137 1    
@<TRIPOS>SUBSTRUCTURE
     1 UNK         1 GROUP             0       ****    0 ROOT    
