@<TRIPOS>MOLECULE
3R137
137   139    1
SMALL
USER_CHARGES


@<TRIPOS>ATOM
      1 CA         26.3967   -8.1783   -2.5337 C.3       0 UNK        -0.2020 
      2 C          26.3550   -7.5901   -1.1311 C.2       0 UNK         0.4855 
      3 O          25.8290   -8.2241   -0.2155 O.2       0 UNK        -0.5197 
      4 N          26.9124   -6.3870   -0.9554 N.am      1 UNK        -0.4892 
      5 CA         26.8829   -5.6228    0.2945 C.3       1 UNK         0.0835 
      6 C6         28.0994   -4.6628    0.4004 C.3       12 UNK        -0.0855 
      7 S7         28.2339   -3.4496   -0.9618 S.3       12 UNK        -0.2931 
      8 C8         29.6509   -4.1087   -1.8887 C.3       12 UNK         0.0378 
      9 C9         29.8924   -3.3150   -3.1635 C.ar      12 UNK        -0.0802 
     10 C10        30.7030   -2.1761   -3.1390 C.ar      12 UNK        -0.0944 
     11 C11        30.9593   -1.4642   -4.3142 C.ar      12 UNK        -0.0787 
     12 C12        30.4003   -1.8978   -5.5199 C.ar      12 UNK        -0.0862 
     13 C13        29.5840   -3.0323   -5.5563 C.ar      12 UNK        -0.0733 
     14 C14        29.3279   -3.7328   -4.3731 C.ar      12 UNK        -0.0832 
     15 C15        29.0139   -3.5309   -6.8771 C.3       12 UNK         0.0240 
     16 S16        27.3123   -2.9479   -7.1587 S.3       12 UNK        -0.2522 
     17 C17        27.5912   -1.2151   -7.6560 C.3       12 UNK        -0.0967 
     18 CA         26.9225   -0.1927   -6.7081 C.3       5 UNK         0.0660 
     19 N          27.3488   -0.3718   -5.3179 N.am      5 UNK        -0.4015 
     20 C          26.7662    0.1969   -4.2569 C.2       4 UNK         0.4946 
     21 O          25.7830    0.9412   -4.3204 O.2       4 UNK        -0.5353 
     22 CA         27.4179   -0.1000   -2.8964 C.3       4 UNK         0.0277 
     23 CB         28.5508    0.9005   -2.6137 C.3       4 UNK        -0.1981 
     24 N          26.4546   -0.0535   -1.7942 N.am      4 UNK        -0.4209 
     25 C          25.4696   -0.9407   -1.6077 C.2       3 UNK         0.4942 
     26 O          25.2584   -1.9089   -2.3417 O.2       3 UNK        -0.5208 
     27 CA         24.5620   -0.7075   -0.3962 C.3       3 UNK         0.0250 
     28 CB         23.2044   -0.1171   -0.8174 C.3       3 UNK        -0.1990 
     29 N          24.3707   -1.9864    0.2789 N.am      3 UNK        -0.4232 
     30 C          24.1389   -2.1556    1.5839 C.2       2 UNK         0.4993 
     31 O          23.9733   -1.2234    2.3718 O.2       2 UNK        -0.5286 
     32 CA         24.1165   -3.5991    2.1223 C.3       2 UNK         0.0209 
     33 CB         22.7627   -4.2844    1.8459 C.3       2 UNK        -0.1931 
     34 N          25.2576   -4.4225    1.6853 N.am      2 UNK        -0.4546 
     35 C          25.5366   -4.8820    0.4562 C.2       1 UNK         0.5154 
     36 O          24.8034   -4.7054   -0.5209 O.2       1 UNK        -0.5181 
     37 C          27.1861    1.2444   -7.2060 C.2       5 UNK         0.5014 
     38 O          28.0817    1.9229   -6.6963 O.2       5 UNK        -0.5248 
     39 N          26.4146    1.6599   -8.2162 N.am      6 UNK        -0.4434 
     40 CA         26.5127    2.9597   -8.8798 C.3       6 UNK         0.0363 
     41 CB         25.1122    3.5992   -8.8975 C.3       6 UNK        -0.1936 
     42 C          27.0492    2.7955  -10.3114 C.2       6 UNK         0.5081 
     43 O          27.1658    1.6713  -10.8076 O.2       6 UNK        -0.5248 
     44 N          27.3363    3.9359  -10.9555 N.am      7 UNK        -0.4718 
     45 CA         27.8098    4.0772  -12.3387 C.3       7 UNK         0.0273 
     46 CB         26.6952    3.6775  -13.3340 C.3       7 UNK        -0.1935 
     47 C          29.1535    3.3569  -12.5679 C.2       7 UNK         0.5018 
     48 O          30.0391    3.4549  -11.7177 O.2       7 UNK        -0.5186 
     49 N          29.2937    2.6407  -13.6919 N.am      8 UNK        -0.4240 
     50 CA         30.5029    1.9025  -14.0774 C.3       8 UNK         0.0235 
     51 CB         30.3216    1.3530  -15.5021 C.3       8 UNK        -0.2000 
     52 C          30.8990    0.7689  -13.1105 C.2       8 UNK         0.4941 
     53 O          32.0610    0.3613  -13.1127 O.2       8 UNK        -0.5273 
     54 N          29.9432    0.2852  -12.3059 N.am      9 UNK        -0.4262 
     55 CA         30.1544   -0.7374  -11.2824 C.3       9 UNK         0.0264 
     56 CB         28.8571   -1.5482  -11.1225 C.3       9 UNK        -0.1955 
     57 C          30.6176   -0.1634   -9.9293 C.2       9 UNK         0.5031 
     58 O          30.9343   -0.9551   -9.0402 O.2       9 UNK        -0.5390 
     59 N          30.6364    1.1695   -9.7658 N.am      10 UNK        -0.4204 
     60 CA         31.0536    1.8371   -8.5293 C.3       10 UNK         0.0237 
     61 CB         30.6836    3.3275   -8.5944 C.3       10 UNK        -0.1985 
     62 C          32.5560    1.6754   -8.2442 C.2       10 UNK         0.4970 
     63 O          33.3574    1.5434   -9.1723 O.2       10 UNK        -0.4914 
     64 N          32.9002    1.7281   -6.9540 N.am      11 UNK        -0.4285 
     65 CA         34.2703    1.5905   -6.4347 C.3       11 UNK         0.1007 
     66 C          35.1338    2.8814   -6.5467 C.2       11 UNK         0.5703 
     67 N          34.5852    4.0221   -6.9491 N.am      11 UNK        -0.7361 
     68 O          36.3311    2.8443   -6.2726 O.2       11 UNK        -0.4986 
     69 C69        34.2657    1.0368   -4.9840 C.3       12 UNK        -0.0947 
     70 S70        33.5237   -0.6265   -4.8772 S.3       12 UNK        -0.2240 
     71 C71        31.8486   -0.2324   -4.2894 C.3       12 UNK         0.0194 
     72 H72        26.9045   -7.5195   -3.2380 H         1 UNK         0.0906 
     73 H73        26.9210   -9.1336   -2.5250 H         1 UNK         0.0906 
     74 H74        25.3841   -8.3483   -2.8988 H         1 UNK         0.0906 
     75 H75        27.2676   -5.8781   -1.7519 H         1 UNK         0.3140 
     76 H76        26.9530   -6.3303    1.1243 H         1 UNK         0.1085 
     77 H77        28.0711   -4.1103    1.3413 H         1 UNK         0.0836 
     78 H78        29.0174   -5.2509    0.4476 H         1 UNK         0.0836 
     79 H79        29.4775   -5.1590   -2.1275 H         1 UNK         0.0731 
     80 H80        30.5406   -4.0799   -1.2575 H         1 UNK         0.0731 
     81 H81        31.1407   -1.8500   -2.2052 H         1 UNK         0.1312 
     82 H82        30.6212   -1.3610   -6.4329 H         1 UNK         0.1406 
     83 H83        28.7011   -4.6141   -4.3985 H         1 UNK         0.1631 
     84 H84        29.0120   -4.6219   -6.8823 H         1 UNK         0.0717 
     85 H85        29.6504   -3.2297   -7.7111 H         1 UNK         0.0717 
     86 H86        28.6602   -1.0192   -7.7341 H         1 UNK         0.0934 
     87 H87        27.1926   -1.1053   -8.6653 H         1 UNK         0.0934 
     88 H88        25.8433   -0.3599   -6.7344 H         1 UNK         0.0739 
     89 H89        28.1539   -0.9656   -5.1781 H         1 UNK         0.3093 
     90 H90        27.8405   -1.1067   -2.9307 H         1 UNK         0.0818 
     91 H91        29.2733    0.9152   -3.4299 H         1 UNK         0.0819 
     92 H92        28.1724    1.9172   -2.5015 H         1 UNK         0.0819 
     93 H93        29.0945    0.6377   -1.7060 H         1 UNK         0.0819 
     94 H94        26.5288    0.7331   -1.1661 H         1 UNK         0.3041 
     95 H95        25.0578   -0.0139    0.2867 H         1 UNK         0.0784 
     96 H96        23.3372    0.8291   -1.3436 H         1 UNK         0.0793 
     97 H97        22.6646   -0.7900   -1.4849 H         1 UNK         0.0793 
     98 H98        22.5699    0.0776    0.0474 H         1 UNK         0.0793 
     99 H99        24.5218   -2.8125   -0.2988 H         1 UNK         0.3024 
    100 H100       24.2161   -3.5192    3.2066 H         1 UNK         0.1171 
    101 H101       22.5526   -4.3695    0.7795 H         1 UNK         0.0786 
    102 H102       22.7300   -5.2856    2.2754 H         1 UNK         0.0786 
    103 H103       21.9445   -3.7150    2.2887 H         1 UNK         0.0786 
    104 H104       25.9386   -4.6023    2.4109 H         1 UNK         0.2977 
    105 H105       25.7666    1.0088   -8.6371 H         1 UNK         0.3127 
    106 H106       27.1920    3.6185   -8.3348 H         1 UNK         0.0770 
    107 H107       25.1353    4.5988   -9.3328 H         1 UNK         0.0814 
    108 H108       24.7121    3.7001   -7.8884 H         1 UNK         0.0814 
    109 H109       24.4046    3.0071   -9.4795 H         1 UNK         0.0814 
    110 H110       27.2395    4.8034  -10.4461 H         1 UNK         0.2983 
    111 H111       28.0160    5.1387  -12.4847 H         1 UNK         0.0947 
    112 H112       26.9673    3.9267  -14.3605 H         1 UNK         0.0806 
    113 H113       25.7703    4.2127  -13.1180 H         1 UNK         0.0806 
    114 H114       26.4715    2.6106  -13.2952 H         1 UNK         0.0806 
    115 H115       28.5151    2.6015  -14.3338 H         1 UNK         0.3000 
    116 H116       31.3312    2.6144  -14.0882 H         1 UNK         0.0850 
    117 H117       29.4886    0.6512  -15.5612 H         1 UNK         0.0810 
    118 H118       31.2165    0.8242  -15.8340 H         1 UNK         0.0810 
    119 H119       30.1391    2.1546  -16.2182 H         1 UNK         0.0810 
    120 H120       29.0190    0.6947  -12.3492 H         1 UNK         0.3040 
    121 H121       30.9355   -1.4238  -11.6164 H         1 UNK         0.0766 
    122 H122       28.5996   -2.0653  -12.0469 H         1 UNK         0.0812 
    123 H123       28.0156   -0.9102  -10.8536 H         1 UNK         0.0812 
    124 H124       28.9569   -2.3082  -10.3461 H         1 UNK         0.0812 
    125 H125       30.4042    1.7719  -10.5484 H         1 UNK         0.3205 
    126 H126       30.4979    1.3783   -7.7090 H         1 UNK         0.0754 
    127 H127       30.8818    3.8240   -7.6439 H         1 UNK         0.0769 
    128 H128       29.6251    3.4641   -8.8108 H         1 UNK         0.0769 
    129 H129       31.2537    3.8516   -9.3626 H         1 UNK         0.0769 
    130 H130       32.1837    1.8860   -6.2627 H         1 UNK         0.2981 
    131 H131       34.7818    0.8530   -7.0566 H         1 UNK         0.0541 
    132 H132       33.6081    4.0653   -7.1870 H         1 UNK         0.3459 
    133 H133       35.1603    4.8466   -7.0210 H         1 UNK         0.3459 
    134 H134       33.7470    1.7191   -4.3082 H         1 UNK         0.0612 
    135 H135       35.2854    0.9520   -4.6039 H         1 UNK         0.0612 
    136 H136       31.9084    0.1799   -3.2808 H         1 UNK         0.0624 
    137 H137       31.4059    0.5420   -4.9158 H         1 UNK         0.0624 
@<TRIPOS>BOND
     1    1    2 1    
     2    1   72 1    
     3    1   73 1    
     4    1   74 1    
     5    2    3 2    
     6    2    4 am   BACKBONE|DICT|INTERRES
     7    4    5 1    
     8    4   75 1    
     9    5    6 1    
    10    5   35 1    
    11    5   76 1    
    12    6    7 1    
    13    6   77 1    
    14    6   78 1    
    15    7    8 1    
    16    8    9 1    
    17    8   79 1    
    18    8   80 1    
    19    9   10 ar   
    20    9   14 ar   
    21   10   11 ar   
    22   10   81 1    
    23   11   12 ar   
    24   11   71 1    
    25   12   13 ar   
    26   12   82 1    
    27   13   14 ar   
    28   13   15 1    
    29   14   83 1    
    30   15   16 1    
    31   15   84 1    
    32   15   85 1    
    33   16   17 1    
    34   17   18 1    
    35   17   86 1    
    36   17   87 1    
    37   18   19 1    
    38   18   37 1    
    39   18   88 1    
    40   19   20 am   BACKBONE|DICT|INTERRES
    41   19   89 1    
    42   20   21 2    
    43   20   22 1    
    44   22   23 1    
    45   22   24 1    
    46   22   90 1    
    47   23   91 1    
    48   23   92 1    
    49   23   93 1    
    50   24   25 am   BACKBONE|DICT|INTERRES
    51   24   94 1    
    52   25   26 2    
    53   25   27 1    
    54   27   28 1    
    55   27   29 1    
    56   27   95 1    
    57   28   96 1    
    58   28   97 1    
    59   28   98 1    
    60   29   30 am   BACKBONE|DICT|INTERRES
    61   29   99 1    
    62   30   31 2    
    63   30   32 1    
    64   32   33 1    
    65   32   34 1    
    66   32  100 1    
    67   33  101 1    
    68   33  102 1    
    69   33  103 1    
    70   34   35 am   BACKBONE|DICT|INTERRES
    71   34  104 1    
    72   35   36 2    
    73   37   38 2    
    74   37   39 am   BACKBONE|DICT|INTERRES
    75   39   40 1    
    76   39  105 1    
    77   40   41 1    
    78   40   42 1    
    79   40  106 1    
    80   41  107 1    
    81   41  108 1    
    82   41  109 1    
    83   42   43 2    
    84   42   44 am   BACKBONE|DICT|INTERRES
    85   44   45 1    
    86   44  110 1    
    87   45   46 1    
    88   45   47 1    
    89   45  111 1    
    90   46  112 1    
    91   46  113 1    
    92   46  114 1    
    93   47   48 2    
    94   47   49 am   BACKBONE|DICT|INTERRES
    95   49   50 1    
    96   49  115 1    
    97   50   51 1    
    98   50   52 1    
    99   50  116 1    
   100   51  117 1    
   101   51  118 1    
   102   51  119 1    
   103   52   53 2    
   104   52   54 am   BACKBONE|DICT|INTERRES
   105   54   55 1    
   106   54  120 1    
   107   55   56 1    
   108   55   57 1    
   109   55  121 1    
   110   56  122 1    
   111   56  123 1    
   112   56  124 1    
   113   57   58 2    
   114   57   59 am   BACKBONE|DICT|INTERRES
   115   59   60 1    
   116   59  125 1    
   117   60   61 1    
   118   60   62 1    
   119   60  126 1    
   120   61  127 1    
   121   61  128 1    
   122   61  129 1    
   123   62   63 2    
   124   62   64 am   BACKBONE|DICT|INTERRES
   125   64   65 1    
   126   64  130 1    
   127   65   66 1    
   128   65   69 1    
   129   65  131 1    
   130   66   67 am   BACKBONE|DICT|INTERRES
   131   66   68 2    
   132   67  132 1    
   133   67  133 1    
   134   69   70 1    
   135   69  134 1    
   136   69  135 1    
   137   70   71 1    
   138   71  136 1    
   139   71  137 1    
@<TRIPOS>SUBSTRUCTURE
     1 UNK         1 GROUP             0       ****    0 ROOT    
