@<TRIPOS>MOLECULE
3R137
137   139    1
SMALL
USER_CHARGES


@<TRIPOS>ATOM
      1 CA         25.5048   -5.9554   -5.9848 C.3       0 UNK        -0.2020 
      2 C          25.7274   -5.4012   -4.5861 C.2       0 UNK         0.4855 
      3 O          24.7629   -5.0552   -3.9036 O.2       0 UNK        -0.5197 
      4 N          26.9952   -5.3035   -4.1644 N.am      1 UNK        -0.4892 
      5 CA         27.4506   -4.7856   -2.8682 C.3       1 UNK         0.0835 
      6 C6         28.9885   -4.9242   -2.7573 C.3       12 UNK        -0.0855 
      7 S7         29.6276   -4.6205   -1.0761 S.3       12 UNK        -0.2931 
      8 C8         31.2654   -3.9069   -1.4407 C.3       12 UNK         0.0378 
      9 C9         31.1692   -2.5088   -2.0376 C.ar      12 UNK        -0.0802 
     10 C10        31.4552   -2.2905   -3.3901 C.ar      12 UNK        -0.0944 
     11 C11        31.3742   -1.0037   -3.9295 C.ar      12 UNK        -0.0787 
     12 C12        31.0367    0.0685   -3.1030 C.ar      12 UNK        -0.0862 
     13 C13        30.7015   -0.1399   -1.7622 C.ar      12 UNK        -0.0733 
     14 C14        30.7873   -1.4311   -1.2324 C.ar      12 UNK        -0.0832 
     15 C15        30.2114    1.0088   -0.8832 C.3       12 UNK         0.0240 
     16 S16        29.0819    2.1788   -1.7257 S.3       12 UNK        -0.2522 
     17 C17        27.8784    1.0795   -2.5533 C.3       12 UNK        -0.0967 
     18 CA         27.9286    1.2297   -4.1001 C.3       5 UNK         0.0660 
     19 N          27.6356   -0.0268   -4.7946 N.am      5 UNK        -0.4015 
     20 C          27.7299   -0.2298   -6.1177 C.2       4 UNK         0.4946 
     21 O          28.1812    0.5940   -6.9119 O.2       4 UNK        -0.5353 
     22 CA         27.1627   -1.5527   -6.6579 C.3       4 UNK         0.0277 
     23 CB         28.2060   -2.6799   -6.5931 C.3       4 UNK        -0.1981 
     24 N          25.9438   -1.9455   -5.9455 N.am      4 UNK        -0.4209 
     25 C          24.7714   -1.3012   -6.0530 C.2       3 UNK         0.4942 
     26 O          24.5760   -0.3667   -6.8287 O.2       3 UNK        -0.5208 
     27 CA         23.6421   -1.7311   -5.1018 C.3       3 UNK         0.0250 
     28 CB         22.8024   -2.8604   -5.7179 C.3       3 UNK        -0.1990 
     29 N          24.1450   -2.1344   -3.7856 N.am      3 UNK        -0.4232 
     30 C          24.6504   -1.2715   -2.8903 C.2       2 UNK         0.4993 
     31 O          24.6915   -0.0543   -3.0695 O.2       2 UNK        -0.5286 
     32 CA         25.2684   -1.8597   -1.6083 C.3       2 UNK         0.0209 
     33 CB         24.1997   -2.0101   -0.5147 C.3       2 UNK        -0.1931 
     34 N          25.9402   -3.1465   -1.8197 N.am      2 UNK        -0.4546 
     35 C          26.9712   -3.3332   -2.6557 C.2       1 UNK         0.5154 
     36 O          27.4842   -2.4216   -3.3051 O.2       1 UNK        -0.5181 
     37 C          27.0280    2.3812   -4.5883 C.2       5 UNK         0.5014 
     38 O          27.5416    3.4478   -4.9278 O.2       5 UNK        -0.5248 
     39 N          25.7101    2.1343   -4.6464 N.am      6 UNK        -0.4434 
     40 CA         24.7044    3.0775   -5.1435 C.3       6 UNK         0.0363 
     41 CB         23.2976    2.5124   -4.8918 C.3       6 UNK        -0.1936 
     42 C          24.8890    3.4363   -6.6287 C.2       6 UNK         0.5081 
     43 O          24.7496    4.6056   -6.9887 O.2       6 UNK        -0.5248 
     44 N          25.2141    2.4359   -7.4591 N.am      7 UNK        -0.4718 
     45 CA         25.5181    2.6081   -8.8828 C.3       7 UNK         0.0273 
     46 CB         25.4541    1.2378   -9.5771 C.3       7 UNK        -0.1935 
     47 C          26.8847    3.2666   -9.1481 C.2       7 UNK         0.5018 
     48 O          27.0673    3.8381  -10.2237 O.2       7 UNK        -0.5186 
     49 N          27.8127    3.1462   -8.1861 N.am      8 UNK        -0.4240 
     50 CA         29.2386    3.4857   -8.2589 C.3       8 UNK         0.0235 
     51 CB         29.4456    5.0084   -8.4036 C.3       8 UNK        -0.2000 
     52 C          29.9466    2.6590   -9.3495 C.2       8 UNK         0.4941 
     53 O          30.6142    3.2203  -10.2214 O.2       8 UNK        -0.5273 
     54 N          29.7403    1.3380   -9.2989 N.am      9 UNK        -0.4262 
     55 CA         30.1744    0.3701  -10.3046 C.3       9 UNK         0.0264 
     56 CB         28.9312   -0.0958  -11.0849 C.3       9 UNK        -0.1955 
     57 C          30.8756   -0.8208   -9.6383 C.2       9 UNK         0.5031 
     58 O          30.8413   -0.9512   -8.4153 O.2       9 UNK        -0.5390 
     59 N          31.4785   -1.6854  -10.4653 N.am      10 UNK        -0.4204 
     60 CA         32.1482   -2.9536  -10.1380 C.3       10 UNK         0.0237 
     61 CB         31.1943   -3.9430   -9.4367 C.3       10 UNK        -0.1985 
     62 C          33.4698   -2.8070   -9.3630 C.2       10 UNK         0.4970 
     63 O          34.4815   -3.3493   -9.8103 O.2       10 UNK        -0.4914 
     64 N          33.4481   -2.1019   -8.2268 N.am      11 UNK        -0.4285 
     65 CA         34.6325   -1.8102   -7.4048 C.3       11 UNK         0.1007 
     66 C          35.5876   -0.7658   -8.0524 C.2       11 UNK         0.5703 
     67 N          36.8349   -0.7089   -7.6039 N.am      11 UNK        -0.7361 
     68 O          35.2136    0.0002   -8.9397 O.2       11 UNK        -0.4986 
     69 C69        34.2539   -1.4577   -5.9399 C.3       12 UNK        -0.0947 
     70 S70        33.1812    0.0091   -5.7805 S.3       12 UNK        -0.2240 
     71 C71        31.5775   -0.7636   -5.4156 C.3       12 UNK         0.0194 
     72 H72        26.3866   -6.4742   -6.3605 H         1 UNK         0.0906 
     73 H73        24.6757   -6.6625   -5.9816 H         1 UNK         0.0906 
     74 H74        25.2637   -5.1493   -6.6770 H         1 UNK         0.0906 
     75 H75        27.7333   -5.5976   -4.7880 H         1 UNK         0.3140 
     76 H76        26.9998   -5.4138   -2.0968 H         1 UNK         0.1085 
     77 H77        29.4789   -4.2640   -3.4739 H         1 UNK         0.0836 
     78 H78        29.2906   -5.9362   -3.0318 H         1 UNK         0.0836 
     79 H79        31.8120   -4.5776   -2.1058 H         1 UNK         0.0731 
     80 H80        31.8423   -3.8607   -0.5159 H         1 UNK         0.0731 
     81 H81        31.7226   -3.1228   -4.0263 H         1 UNK         0.1312 
     82 H82        30.9905    1.0636   -3.5216 H         1 UNK         0.1406 
     83 H83        30.5399   -1.6068   -0.1940 H         1 UNK         0.1631 
     84 H84        31.0754    1.5605   -0.5112 H         1 UNK         0.0717 
     85 H85        29.6934    0.6171   -0.0063 H         1 UNK         0.0717 
     86 H86        28.0891    0.0491   -2.2650 H         1 UNK         0.0934 
     87 H87        26.8828    1.2837   -2.1545 H         1 UNK         0.0934 
     88 H88        28.9452    1.4884   -4.3982 H         1 UNK         0.0739 
     89 H89        27.3597   -0.8148   -4.2132 H         1 UNK         0.3093 
     90 H90        26.9040   -1.3975   -7.7075 H         1 UNK         0.0818 
     91 H91        27.8043   -3.6183   -6.9746 H         1 UNK         0.0819 
     92 H92        29.0743   -2.4311   -7.2022 H         1 UNK         0.0819 
     93 H93        28.5686   -2.8524   -5.5805 H         1 UNK         0.0819 
     94 H94        26.0429   -2.6530   -5.2324 H         1 UNK         0.3041 
     95 H95        22.9861   -0.8693   -4.9612 H         1 UNK         0.0784 
     96 H96        22.3813   -2.5521   -6.6759 H         1 UNK         0.0793 
     97 H97        23.3925   -3.7582   -5.8970 H         1 UNK         0.0793 
     98 H98        21.9685   -3.1321   -5.0705 H         1 UNK         0.0793 
     99 H99        24.1868   -3.1311   -3.5915 H         1 UNK         0.3024 
    100 H100       26.0201   -1.1498   -1.2569 H         1 UNK         0.1171 
    101 H101       24.6395   -2.3349    0.4284 H         1 UNK         0.0786 
    102 H102       23.6991   -1.0592   -0.3259 H         1 UNK         0.0786 
    103 H103       23.4322   -2.7326   -0.7953 H         1 UNK         0.0786 
    104 H104       25.5372   -3.9497   -1.3583 H         1 UNK         0.2977 
    105 H105       25.3634    1.2514   -4.2769 H         1 UNK         0.3127 
    106 H106       24.8080    3.9990   -4.5668 H         1 UNK         0.0770 
    107 H107       23.1320    1.5841   -5.4389 H         1 UNK         0.0814 
    108 H108       22.5308    3.2197   -5.2106 H         1 UNK         0.0814 
    109 H109       23.1337    2.3106   -3.8331 H         1 UNK         0.0814 
    110 H110       25.2286    1.4848   -7.1005 H         1 UNK         0.2983 
    111 H111       24.7529    3.2520   -9.3220 H         1 UNK         0.0947 
    112 H112       26.1920    0.5470   -9.1674 H         1 UNK         0.0806 
    113 H113       25.6507    1.3294  -10.6462 H         1 UNK         0.0806 
    114 H114       24.4704    0.7813   -9.4654 H         1 UNK         0.0806 
    115 H115       27.5555    2.5960   -7.3746 H         1 UNK         0.3000 
    116 H116       29.6741    3.1802   -7.3059 H         1 UNK         0.0850 
    117 H117       28.9400    5.5523   -7.6057 H         1 UNK         0.0810 
    118 H118       29.0701    5.3831   -9.3562 H         1 UNK         0.0810 
    119 H119       30.5048    5.2624   -8.3503 H         1 UNK         0.0810 
    120 H120       29.2514    0.9485   -8.4940 H         1 UNK         0.3040 
    121 H121       30.8842    0.8299  -10.9953 H         1 UNK         0.0766 
    122 H122       29.1963   -0.7837  -11.8884 H         1 UNK         0.0812 
    123 H123       28.4137    0.7480  -11.5423 H         1 UNK         0.0812 
    124 H124       28.2201   -0.6089  -10.4358 H         1 UNK         0.0812 
    125 H125       31.4760   -1.4578  -11.4503 H         1 UNK         0.3205 
    126 H126       32.4065   -3.3944  -11.1024 H         1 UNK         0.0754 
    127 H127       30.9057   -3.6021   -8.4423 H         1 UNK         0.0769 
    128 H128       31.6677   -4.9182   -9.3166 H         1 UNK         0.0769 
    129 H129       30.2833   -4.0939  -10.0159 H         1 UNK         0.0769 
    130 H130       32.5837   -1.6291   -7.9765 H         1 UNK         0.2981 
    131 H131       35.2047   -2.7388   -7.3552 H         1 UNK         0.0541 
    132 H132       37.4681   -0.0346   -8.0047 H         1 UNK         0.3459 
    133 H133       37.1566   -1.3251   -6.8739 H         1 UNK         0.3459 
    134 H134       33.7651   -2.3142   -5.4738 H         1 UNK         0.0612 
    135 H135       35.1518   -1.2836   -5.3449 H         1 UNK         0.0612 
    136 H136       30.7886   -0.1044   -5.7805 H         1 UNK         0.0624 
    137 H137       31.4719   -1.6951   -5.9729 H         1 UNK         0.0624 
@<TRIPOS>BOND
     1    1    2 1    
     2    1   72 1    
     3    1   73 1    
     4    1   74 1    
     5    2    3 2    
     6    2    4 am   BACKBONE|DICT|INTERRES
     7    4    5 1    
     8    4   75 1    
     9    5    6 1    
    10    5   35 1    
    11    5   76 1    
    12    6    7 1    
    13    6   77 1    
    14    6   78 1    
    15    7    8 1    
    16    8    9 1    
    17    8   79 1    
    18    8   80 1    
    19    9   10 ar   
    20    9   14 ar   
    21   10   11 ar   
    22   10   81 1    
    23   11   12 ar   
    24   11   71 1    
    25   12   13 ar   
    26   12   82 1    
    27   13   14 ar   
    28   13   15 1    
    29   14   83 1    
    30   15   16 1    
    31   15   84 1    
    32   15   85 1    
    33   16   17 1    
    34   17   18 1    
    35   17   86 1    
    36   17   87 1    
    37   18   19 1    
    38   18   37 1    
    39   18   88 1    
    40   19   20 am   BACKBONE|DICT|INTERRES
    41   19   89 1    
    42   20   21 2    
    43   20   22 1    
    44   22   23 1    
    45   22   24 1    
    46   22   90 1    
    47   23   91 1    
    48   23   92 1    
    49   23   93 1    
    50   24   25 am   BACKBONE|DICT|INTERRES
    51   24   94 1    
    52   25   26 2    
    53   25   27 1    
    54   27   28 1    
    55   27   29 1    
    56   27   95 1    
    57   28   96 1    
    58   28   97 1    
    59   28   98 1    
    60   29   30 am   BACKBONE|DICT|INTERRES
    61   29   99 1    
    62   30   31 2    
    63   30   32 1    
    64   32   33 1    
    65   32   34 1    
    66   32  100 1    
    67   33  101 1    
    68   33  102 1    
    69   33  103 1    
    70   34   35 am   BACKBONE|DICT|INTERRES
    71   34  104 1    
    72   35   36 2    
    73   37   38 2    
    74   37   39 am   BACKBONE|DICT|INTERRES
    75   39   40 1    
    76   39  105 1    
    77   40   41 1    
    78   40   42 1    
    79   40  106 1    
    80   41  107 1    
    81   41  108 1    
    82   41  109 1    
    83   42   43 2    
    84   42   44 am   BACKBONE|DICT|INTERRES
    85   44   45 1    
    86   44  110 1    
    87   45   46 1    
    88   45   47 1    
    89   45  111 1    
    90   46  112 1    
    91   46  113 1    
    92   46  114 1    
    93   47   48 2    
    94   47   49 am   BACKBONE|DICT|INTERRES
    95   49   50 1    
    96   49  115 1    
    97   50   51 1    
    98   50   52 1    
    99   50  116 1    
   100   51  117 1    
   101   51  118 1    
   102   51  119 1    
   103   52   53 2    
   104   52   54 am   BACKBONE|DICT|INTERRES
   105   54   55 1    
   106   54  120 1    
   107   55   56 1    
   108   55   57 1    
   109   55  121 1    
   110   56  122 1    
   111   56  123 1    
   112   56  124 1    
   113   57   58 2    
   114   57   59 am   BACKBONE|DICT|INTERRES
   115   59   60 1    
   116   59  125 1    
   117   60   61 1    
   118   60   62 1    
   119   60  126 1    
   120   61  127 1    
   121   61  128 1    
   122   61  129 1    
   123   62   63 2    
   124   62   64 am   BACKBONE|DICT|INTERRES
   125   64   65 1    
   126   64  130 1    
   127   65   66 1    
   128   65   69 1    
   129   65  131 1    
   130   66   67 am   BACKBONE|DICT|INTERRES
   131   66   68 2    
   132   67  132 1    
   133   67  133 1    
   134   69   70 1    
   135   69  134 1    
   136   69  135 1    
   137   70   71 1    
   138   71  136 1    
   139   71  137 1    
@<TRIPOS>SUBSTRUCTURE
     1 UNK         1 GROUP             0       ****    0 ROOT    
