@<TRIPOS>MOLECULE
3R137
137   139    1
SMALL
USER_CHARGES


@<TRIPOS>ATOM
      1 CA         27.4252   -6.7088   -2.5125 C.3       0 UNK        -0.2020 
      2 C          26.7016   -5.7365   -1.5929 C.2       0 UNK         0.4855 
      3 O          25.6458   -6.0724   -1.0554 O.2       0 UNK        -0.5197 
      4 N          27.2687   -4.5399   -1.3960 N.am      1 UNK        -0.4892 
      5 CA         26.6852   -3.4511   -0.6082 C.3       1 UNK         0.0835 
      6 C6         27.7488   -2.3882   -0.2177 C.3       12 UNK        -0.0855 
      7 S7         28.6411   -1.6556   -1.6359 S.3       12 UNK        -0.2931 
      8 C8         30.2498   -2.5150   -1.5534 C.3       12 UNK         0.0378 
      9 C9         30.8248   -2.7120   -2.9478 C.ar      12 UNK        -0.0802 
     10 C10        32.0024   -2.0716   -3.3465 C.ar      12 UNK        -0.0944 
     11 C11        32.5093   -2.2689   -4.6355 C.ar      12 UNK        -0.0787 
     12 C12        31.7913   -3.0588   -5.5409 C.ar      12 UNK        -0.0862 
     13 C13        30.5978   -3.6848   -5.1659 C.ar      12 UNK        -0.0733 
     14 C14        30.1621   -3.5511   -3.8456 C.ar      12 UNK        -0.0832 
     15 C15        29.8293   -4.4894   -6.2188 C.3       12 UNK         0.0240 
     16 S16        28.1377   -5.0656   -5.7915 S.3       12 UNK        -0.2522 
     17 C17        27.1711   -3.5981   -5.2684 C.3       12 UNK        -0.0967 
     18 CA         26.8503   -2.5549   -6.3662 C.3       5 UNK         0.0660 
     19 N          25.6471   -1.7896   -6.0217 N.am      5 UNK        -0.4015 
     20 C          25.0496   -0.8890   -6.8157 C.2       4 UNK         0.4946 
     21 O          25.4068   -0.6389   -7.9665 O.2       4 UNK        -0.5353 
     22 CA         23.8733   -0.1031   -6.2141 C.3       4 UNK         0.0277 
     23 CB         22.5627   -0.8895   -6.3733 C.3       4 UNK        -0.1981 
     24 N          24.0528    0.2620   -4.8062 N.am      4 UNK        -0.4209 
     25 C          25.0576    0.9841   -4.2940 C.2       3 UNK         0.4942 
     26 O          26.0038    1.3974   -4.9615 O.2       3 UNK        -0.5208 
     27 CA         25.0233    1.2955   -2.7855 C.3       3 UNK         0.0250 
     28 CB         24.2079    2.5729   -2.5082 C.3       3 UNK        -0.1990 
     29 N          24.5899    0.1818   -1.9272 N.am      3 UNK        -0.4232 
     30 C          23.4013   -0.4394   -1.8732 C.2       2 UNK         0.4993 
     31 O          22.4327   -0.1156   -2.5629 O.2       2 UNK        -0.5286 
     32 CA         23.2746   -1.6363   -0.9074 C.3       2 UNK         0.0209 
     33 CB         22.3073   -2.7132   -1.4459 C.3       2 UNK        -0.1931 
     34 N          24.5539   -2.2509   -0.5141 N.am      2 UNK        -0.4546 
     35 C          25.4629   -2.8260   -1.3180 C.2       1 UNK         0.5154 
     36 O          25.3802   -2.8444   -2.5505 O.2       1 UNK        -0.5181 
     37 C          28.0388   -1.6079   -6.6194 C.2       5 UNK         0.5014 
     38 O          28.6290   -1.6446   -7.6998 O.2       5 UNK        -0.5248 
     39 N          28.3299   -0.7457   -5.6337 N.am      6 UNK        -0.4434 
     40 CA         29.3911    0.2585   -5.6928 C.3       6 UNK         0.0363 
     41 CB         29.5242    0.9585   -4.3312 C.3       6 UNK        -0.1936 
     42 C          29.1817    1.2849   -6.8147 C.2       6 UNK         0.5081 
     43 O          30.1506    1.6499   -7.4765 O.2       6 UNK        -0.5248 
     44 N          27.9301    1.7090   -7.0339 N.am      7 UNK        -0.4718 
     45 CA         27.5366    2.6000   -8.1263 C.3       7 UNK         0.0273 
     46 CB         26.0694    3.0223   -7.9525 C.3       7 UNK        -0.1935 
     47 C          27.7701    1.9768   -9.5125 C.2       7 UNK         0.5018 
     48 O          28.3418    2.6408  -10.3775 O.2       7 UNK        -0.5186 
     49 N          27.3592    0.7121   -9.6913 N.am      8 UNK        -0.4240 
     50 CA         27.5591   -0.0560  -10.9240 C.3       8 UNK         0.0235 
     51 CB         26.7414   -1.3562  -10.8652 C.3       8 UNK        -0.2000 
     52 C          29.0393   -0.3598  -11.2078 C.2       8 UNK         0.4941 
     53 O          29.4699   -0.2474  -12.3562 O.2       8 UNK        -0.5273 
     54 N          29.7922   -0.7226  -10.1609 N.am      9 UNK        -0.4262 
     55 CA         31.2280   -1.0081  -10.2266 C.3       9 UNK         0.0264 
     56 CB         31.6159   -1.8461   -9.0001 C.3       9 UNK        -0.1955 
     57 C          32.1162    0.2479  -10.3285 C.2       9 UNK         0.5031 
     58 O          33.3000    0.1093  -10.6405 O.2       9 UNK        -0.5390 
     59 N          31.5449    1.4318  -10.0600 N.am      10 UNK        -0.4204 
     60 CA         32.1918    2.7475   -9.9833 C.3       10 UNK         0.0237 
     61 CB         32.7681    3.1737  -11.3508 C.3       10 UNK        -0.1985 
     62 C          33.2127    2.8368   -8.8303 C.2       10 UNK         0.4970 
     63 O          34.2902    3.4118   -8.9973 O.2       10 UNK        -0.4914 
     64 N          32.8408    2.2717   -7.6762 N.am      11 UNK        -0.4285 
     65 CA         33.6139    2.2918   -6.4249 C.3       11 UNK         0.1007 
     66 C          33.4287    3.5965   -5.5983 C.2       11 UNK         0.5703 
     67 N          32.4791    4.4660   -5.9252 N.am      11 UNK        -0.7361 
     68 O          34.1708    3.8303   -4.6472 O.2       11 UNK        -0.4986 
     69 C69        33.3263    1.0388   -5.5550 C.3       12 UNK        -0.0947 
     70 S70        33.7555   -0.5074   -6.4148 S.3       12 UNK        -0.2240 
     71 C71        33.8614   -1.6883   -5.0340 C.3       12 UNK         0.0194 
     72 H72        27.5580   -7.6693   -2.0153 H         1 UNK         0.0906 
     73 H73        26.8411   -6.8716   -3.4179 H         1 UNK         0.0906 
     74 H74        28.4091   -6.3427   -2.8045 H         1 UNK         0.0906 
     75 H75        28.1184   -4.2996   -1.8799 H         1 UNK         0.3140 
     76 H76        26.3161   -3.8959    0.3192 H         1 UNK         0.1085 
     77 H77        27.2885   -1.5765    0.3487 H         1 UNK         0.0836 
     78 H78        28.4709   -2.8328    0.4690 H         1 UNK         0.0836 
     79 H79        30.9304   -1.9400   -0.9235 H         1 UNK         0.0731 
     80 H80        30.1388   -3.4915   -1.0801 H         1 UNK         0.0731 
     81 H81        32.5378   -1.4448   -2.6465 H         1 UNK         0.1312 
     82 H82        32.1734   -3.1938   -6.5431 H         1 UNK         0.1406 
     83 H83        29.2850   -4.0767   -3.5092 H         1 UNK         0.1631 
     84 H84        30.4222   -5.3727   -6.4595 H         1 UNK         0.0717 
     85 H85        29.7729   -3.9150   -7.1428 H         1 UNK         0.0717 
     86 H86        26.2310   -4.0188   -4.9069 H         1 UNK         0.0934 
     87 H87        27.5946   -3.1205   -4.3869 H         1 UNK         0.0934 
     88 H88        26.6377   -3.0830   -7.2983 H         1 UNK         0.0739 
     89 H89        25.2830   -1.9184   -5.0873 H         1 UNK         0.3093 
     90 H90        23.7813    0.8272   -6.7773 H         1 UNK         0.0818 
     91 H91        21.7048   -0.2993   -6.0503 H         1 UNK         0.0819 
     92 H92        22.3936   -1.1608   -7.4164 H         1 UNK         0.0819 
     93 H93        22.5715   -1.8125   -5.7919 H         1 UNK         0.0819 
     94 H94        23.3113   -0.0007   -4.1592 H         1 UNK         0.3041 
     95 H95        26.0552    1.4997   -2.4944 H         1 UNK         0.0784 
     96 H96        24.6003    3.4152   -3.0799 H         1 UNK         0.0793 
     97 H97        23.1590    2.4574   -2.7829 H         1 UNK         0.0793 
     98 H98        24.2502    2.8491   -1.4547 H         1 UNK         0.0793 
     99 H99        25.3166   -0.2010   -1.3392 H         1 UNK         0.3024 
    100 H100       22.8363   -1.2286    0.0052 H         1 UNK         0.1171 
    101 H101       22.6446   -3.1181   -2.4008 H         1 UNK         0.0786 
    102 H102       21.3081   -2.3044   -1.6016 H         1 UNK         0.0786 
    103 H103       22.2081   -3.5434   -0.7466 H         1 UNK         0.0786 
    104 H104       24.7301   -2.2618    0.4819 H         1 UNK         0.2977 
    105 H105       27.7664   -0.7529   -4.7968 H         1 UNK         0.3127 
    106 H106       30.3252   -0.2674   -5.9016 H         1 UNK         0.0770 
    107 H107       29.8792    0.2665   -3.5682 H         1 UNK         0.0814 
    108 H108       28.5749    1.3757   -3.9943 H         1 UNK         0.0814 
    109 H109       30.2388    1.7811   -4.3764 H         1 UNK         0.0814 
    110 H110       27.1981    1.4149   -6.3900 H         1 UNK         0.2983 
    111 H111       28.1577    3.4958   -8.0588 H         1 UNK         0.0947 
    112 H112       25.7716    3.7265   -8.7304 H         1 UNK         0.0806 
    113 H113       25.9087    3.5115   -6.9915 H         1 UNK         0.0806 
    114 H114       25.3945    2.1686   -8.0094 H         1 UNK         0.0806 
    115 H115       26.8662    0.2411   -8.9361 H         1 UNK         0.3000 
    116 H116       27.1812    0.5446  -11.7542 H         1 UNK         0.0850 
    117 H117       26.8702   -1.9423  -11.7760 H         1 UNK         0.0810 
    118 H118       25.6763   -1.1487  -10.7602 H         1 UNK         0.0810 
    119 H119       27.0420   -1.9838  -10.0251 H         1 UNK         0.0810 
    120 H120       29.3414   -0.8600   -9.2571 H         1 UNK         0.3040 
    121 H121       31.4185   -1.6082  -11.1188 H         1 UNK         0.0766 
    122 H122       32.6817   -2.0784   -8.9995 H         1 UNK         0.0812 
    123 H123       31.0763   -2.7926   -8.9818 H         1 UNK         0.0812 
    124 H124       31.3933   -1.3162   -8.0732 H         1 UNK         0.0812 
    125 H125       30.5780    1.4147   -9.7599 H         1 UNK         0.3205 
    126 H126       31.3968    3.4516   -9.7329 H         1 UNK         0.0754 
    127 H127       33.1156    4.2071  -11.3221 H         1 UNK         0.0769 
    128 H128       32.0144    3.1074  -12.1354 H         1 UNK         0.0769 
    129 H129       33.6162    2.5555  -11.6463 H         1 UNK         0.0769 
    130 H130       31.9036    1.8765   -7.6141 H         1 UNK         0.2981 
    131 H131       34.6728    2.2627   -6.6886 H         1 UNK         0.0541 
    132 H132       31.8607    4.2791   -6.6977 H         1 UNK         0.3459 
    133 H133       32.3752    5.3103   -5.3850 H         1 UNK         0.3459 
    134 H134       33.8992    1.0813   -4.6269 H         1 UNK         0.0612 
    135 H135       32.2767    0.9973   -5.2685 H         1 UNK         0.0612 
    136 H136       34.5099   -2.5103   -5.3395 H         1 UNK         0.0624 
    137 H137       34.3554   -1.2169   -4.1832 H         1 UNK         0.0624 
@<TRIPOS>BOND
     1    1    2 1    
     2    1   72 1    
     3    1   73 1    
     4    1   74 1    
     5    2    3 2    
     6    2    4 am   BACKBONE|DICT|INTERRES
     7    4    5 1    
     8    4   75 1    
     9    5    6 1    
    10    5   35 1    
    11    5   76 1    
    12    6    7 1    
    13    6   77 1    
    14    6   78 1    
    15    7    8 1    
    16    8    9 1    
    17    8   79 1    
    18    8   80 1    
    19    9   10 ar   
    20    9   14 ar   
    21   10   11 ar   
    22   10   81 1    
    23   11   12 ar   
    24   11   71 1    
    25   12   13 ar   
    26   12   82 1    
    27   13   14 ar   
    28   13   15 1    
    29   14   83 1    
    30   15   16 1    
    31   15   84 1    
    32   15   85 1    
    33   16   17 1    
    34   17   18 1    
    35   17   86 1    
    36   17   87 1    
    37   18   19 1    
    38   18   37 1    
    39   18   88 1    
    40   19   20 am   BACKBONE|DICT|INTERRES
    41   19   89 1    
    42   20   21 2    
    43   20   22 1    
    44   22   23 1    
    45   22   24 1    
    46   22   90 1    
    47   23   91 1    
    48   23   92 1    
    49   23   93 1    
    50   24   25 am   BACKBONE|DICT|INTERRES
    51   24   94 1    
    52   25   26 2    
    53   25   27 1    
    54   27   28 1    
    55   27   29 1    
    56   27   95 1    
    57   28   96 1    
    58   28   97 1    
    59   28   98 1    
    60   29   30 am   BACKBONE|DICT|INTERRES
    61   29   99 1    
    62   30   31 2    
    63   30   32 1    
    64   32   33 1    
    65   32   34 1    
    66   32  100 1    
    67   33  101 1    
    68   33  102 1    
    69   33  103 1    
    70   34   35 am   BACKBONE|DICT|INTERRES
    71   34  104 1    
    72   35   36 2    
    73   37   38 2    
    74   37   39 am   BACKBONE|DICT|INTERRES
    75   39   40 1    
    76   39  105 1    
    77   40   41 1    
    78   40   42 1    
    79   40  106 1    
    80   41  107 1    
    81   41  108 1    
    82   41  109 1    
    83   42   43 2    
    84   42   44 am   BACKBONE|DICT|INTERRES
    85   44   45 1    
    86   44  110 1    
    87   45   46 1    
    88   45   47 1    
    89   45  111 1    
    90   46  112 1    
    91   46  113 1    
    92   46  114 1    
    93   47   48 2    
    94   47   49 am   BACKBONE|DICT|INTERRES
    95   49   50 1    
    96   49  115 1    
    97   50   51 1    
    98   50   52 1    
    99   50  116 1    
   100   51  117 1    
   101   51  118 1    
   102   51  119 1    
   103   52   53 2    
   104   52   54 am   BACKBONE|DICT|INTERRES
   105   54   55 1    
   106   54  120 1    
   107   55   56 1    
   108   55   57 1    
   109   55  121 1    
   110   56  122 1    
   111   56  123 1    
   112   56  124 1    
   113   57   58 2    
   114   57   59 am   BACKBONE|DICT|INTERRES
   115   59   60 1    
   116   59  125 1    
   117   60   61 1    
   118   60   62 1    
   119   60  126 1    
   120   61  127 1    
   121   61  128 1    
   122   61  129 1    
   123   62   63 2    
   124   62   64 am   BACKBONE|DICT|INTERRES
   125   64   65 1    
   126   64  130 1    
   127   65   66 1    
   128   65   69 1    
   129   65  131 1    
   130   66   67 am   BACKBONE|DICT|INTERRES
   131   66   68 2    
   132   67  132 1    
   133   67  133 1    
   134   69   70 1    
   135   69  134 1    
   136   69  135 1    
   137   70   71 1    
   138   71  136 1    
   139   71  137 1    
@<TRIPOS>SUBSTRUCTURE
     1 UNK         1 GROUP             0       ****    0 ROOT    
