@<TRIPOS>MOLECULE
3R137
137   139    1
SMALL
USER_CHARGES


@<TRIPOS>ATOM
      1 CA         23.2070   -5.6884   -2.1427 C.3       0 UNK        -0.2020 
      2 C          24.1426   -5.2495   -1.0261 C.2       0 UNK         0.4855 
      3 O          23.6854   -4.9624    0.0798 O.2       0 UNK        -0.5197 
      4 N          25.4504   -5.1840   -1.3093 N.am      1 UNK        -0.4892 
      5 CA         26.4999   -4.7686   -0.3657 C.3       1 UNK         0.0835 
      6 C6         27.8903   -5.2646   -0.8394 C.3       12 UNK        -0.0855 
      7 S7         28.4597   -4.4924   -2.3999 S.3       12 UNK        -0.2931 
      8 C8         29.9794   -3.6698   -1.8213 C.3       12 UNK         0.0378 
      9 C9         30.4615   -2.5852   -2.7753 C.ar      12 UNK        -0.0802 
     10 C10        30.7500   -2.8830   -4.1100 C.ar      12 UNK        -0.0944 
     11 C11        31.2172   -1.8898   -4.9758 C.ar      12 UNK        -0.0787 
     12 C12        31.4153   -0.5916   -4.4944 C.ar      12 UNK        -0.0862 
     13 C13        31.1348   -0.2814   -3.1597 C.ar      12 UNK        -0.0733 
     14 C14        30.6542   -1.2817   -2.3087 C.ar      12 UNK        -0.0832 
     15 C15        31.3573    1.1273   -2.6188 C.3       12 UNK         0.0240 
     16 S16        30.3750    2.4069   -3.4713 S.3       12 UNK        -0.2522 
     17 C17        28.6988    1.6855   -3.5069 C.3       12 UNK        -0.0967 
     18 CA         28.2471    1.4180   -4.9693 C.3       5 UNK         0.0660 
     19 N          27.6117    0.1114   -5.1365 N.am      5 UNK        -0.4015 
     20 C          27.4768   -0.5181   -6.3129 C.2       4 UNK         0.4946 
     21 O          27.9439   -0.0960   -7.3719 O.2       4 UNK        -0.5353 
     22 CA         26.6499   -1.8175   -6.3214 C.3       4 UNK         0.0277 
     23 CB         27.5566   -3.0388   -6.1117 C.3       4 UNK        -0.1981 
     24 N          25.5814   -1.8283   -5.3177 N.am      4 UNK        -0.4209 
     25 C          24.5132   -1.0185   -5.3448 C.2       3 UNK         0.4942 
     26 O          24.2922   -0.2161   -6.2487 O.2       3 UNK        -0.5208 
     27 CA         23.5587   -1.0667   -4.1393 C.3       3 UNK         0.0250 
     28 CB         22.4774   -2.1372   -4.3567 C.3       3 UNK        -0.1990 
     29 N          24.2203   -1.2971   -2.8500 N.am      3 UNK        -0.4232 
     30 C          25.2163   -0.5586   -2.3321 C.2       2 UNK         0.4993 
     31 O          25.7252    0.4061   -2.9042 O.2       2 UNK        -0.5286 
     32 CA         25.7708   -1.0177   -0.9789 C.3       2 UNK         0.0209 
     33 CB         24.8979   -0.4897    0.1756 C.3       2 UNK        -0.1931 
     34 N          25.8555   -2.4782   -0.9634 N.am      2 UNK        -0.4546 
     35 C          26.4965   -3.2472   -0.0758 C.2       1 UNK         0.5154 
     36 O          27.0826   -2.8121    0.9165 O.2       1 UNK        -0.5181 
     37 C          27.3270    2.5353   -5.4925 C.2       5 UNK         0.5014 
     38 O          27.7973    3.4207   -6.2062 O.2       5 UNK        -0.5248 
     39 N          26.0262    2.4508   -5.1695 N.am      6 UNK        -0.4434 
     40 CA         24.9851    3.3631   -5.6584 C.3       6 UNK         0.0363 
     41 CB         23.6566    3.0643   -4.9461 C.3       6 UNK        -0.1936 
     42 C          24.8115    3.3133   -7.1886 C.2       6 UNK         0.5081 
     43 O          24.6277    4.3578   -7.8135 O.2       6 UNK        -0.5248 
     44 N          24.9185    2.1091   -7.7666 N.am      7 UNK        -0.4718 
     45 CA         24.9441    1.8589   -9.2113 C.3       7 UNK         0.0273 
     46 CB         24.6605    0.3683   -9.4605 C.3       7 UNK        -0.1935 
     47 C          26.2655    2.2688   -9.8923 C.2       7 UNK         0.5018 
     48 O          26.3110    2.2969  -11.1229 O.2       7 UNK        -0.5186 
     49 N          27.3027    2.5682   -9.0956 N.am      8 UNK        -0.4240 
     50 CA         28.6586    2.9597   -9.4893 C.3       8 UNK         0.0235 
     51 CB         28.6519    4.3381  -10.1851 C.3       8 UNK        -0.2000 
     52 C          29.3853    1.8704  -10.2992 C.2       8 UNK         0.4941 
     53 O          29.9673    2.1660  -11.3461 O.2       8 UNK        -0.5273 
     54 N          29.3453    0.6264   -9.7996 N.am      9 UNK        -0.4262 
     55 CA         30.1052   -0.5013  -10.3449 C.3       9 UNK         0.0264 
     56 CB         29.6065   -1.8054   -9.7050 C.3       9 UNK        -0.1955 
     57 C          31.6207   -0.3182  -10.1350 C.2       9 UNK         0.5031 
     58 O          32.0404    0.3135   -9.1605 O.2       9 UNK        -0.5390 
     59 N          32.4167   -0.8753  -11.0559 N.am      10 UNK        -0.4204 
     60 CA         33.8673   -0.6852  -11.1665 C.3       10 UNK         0.0237 
     61 CB         34.2969   -1.0173  -12.6090 C.3       10 UNK        -0.1985 
     62 C          34.6942   -1.4518  -10.1113 C.2       10 UNK         0.4970 
     63 O          35.6008   -2.2053  -10.4719 O.2       10 UNK        -0.4914 
     64 N          34.3879   -1.2319   -8.8285 N.am      11 UNK        -0.4285 
     65 CA         35.1681   -1.7315   -7.6825 C.3       11 UNK         0.1007 
     66 C          36.4389   -0.8886   -7.3674 C.2       11 UNK         0.5703 
     67 N          36.6357    0.2790   -7.9696 N.am      11 UNK        -0.7361 
     68 O          37.2722   -1.3104   -6.5687 O.2       11 UNK        -0.4986 
     69 C69        34.2908   -1.9114   -6.4172 C.3       12 UNK        -0.0947 
     70 S70        33.0088   -3.1848   -6.6528 S.3       12 UNK        -0.2240 
     71 C71        31.4828   -2.2236   -6.4350 C.3       12 UNK         0.0194 
     72 H72        22.4454   -4.9286   -2.3163 H         1 UNK         0.0906 
     73 H73        23.7381   -5.8565   -3.0796 H         1 UNK         0.0906 
     74 H74        22.7050   -6.6154   -1.8669 H         1 UNK         0.0906 
     75 H75        25.7802   -5.4478   -2.2282 H         1 UNK         0.3140 
     76 H76        26.2893   -5.2560    0.5893 H         1 UNK         0.1085 
     77 H77        27.8622   -6.3451   -0.9894 H         1 UNK         0.0836 
     78 H78        28.6281   -5.1086   -0.0502 H         1 UNK         0.0836 
     79 H79        30.7659   -4.4155   -1.6972 H         1 UNK         0.0731 
     80 H80        29.7982   -3.2424   -0.8336 H         1 UNK         0.0731 
     81 H81        30.6051   -3.8898   -4.4777 H         1 UNK         0.1312 
     82 H82        31.7771    0.1818   -5.1582 H         1 UNK         0.1406 
     83 H83        30.4402   -1.0466   -1.2747 H         1 UNK         0.1631 
     84 H84        32.4148    1.3786   -2.7103 H         1 UNK         0.0717 
     85 H85        31.1257    1.1730   -1.5535 H         1 UNK         0.0717 
     86 H86        28.6879    0.7659   -2.9217 H         1 UNK         0.0934 
     87 H87        28.0178    2.3538   -2.9752 H         1 UNK         0.0934 
     88 H88        29.1292    1.4079   -5.6144 H         1 UNK         0.0739 
     89 H89        27.1324   -0.2546   -4.3244 H         1 UNK         0.3093 
     90 H90        26.1854   -1.9042   -7.3058 H         1 UNK         0.0818 
     91 H91        28.0706   -3.0002   -5.1509 H         1 UNK         0.0819 
     92 H92        26.9896   -3.9689   -6.1523 H         1 UNK         0.0819 
     93 H93        28.3169   -3.0940   -6.8906 H         1 UNK         0.0819 
     94 H94        25.6842   -2.4699   -4.5464 H         1 UNK         0.3041 
     95 H95        23.0666   -0.0943   -4.0770 H         1 UNK         0.0784 
     96 H96        21.9515   -1.9737   -5.2987 H         1 UNK         0.0793 
     97 H97        22.9013   -3.1416   -4.3912 H         1 UNK         0.0793 
     98 H98        21.7289   -2.1144   -3.5643 H         1 UNK         0.0793 
     99 H99        23.8188   -2.0209   -2.2725 H         1 UNK         0.3024 
    100 H100       26.7800   -0.6117   -0.8777 H         1 UNK         0.1171 
    101 H101       24.7891    0.5944    0.1178 H         1 UNK         0.0786 
    102 H102       23.8967   -0.9216    0.1569 H         1 UNK         0.0786 
    103 H103       25.3394   -0.7145    1.1464 H         1 UNK         0.0786 
    104 H104       25.4697   -2.9541   -1.7649 H         1 UNK         0.2977 
    105 H105       25.7332    1.7058   -4.5457 H         1 UNK         0.3127 
    106 H106       25.2906    4.3779   -5.3948 H         1 UNK         0.0770 
    107 H107       23.2779    2.0733   -5.1953 H         1 UNK         0.0814 
    108 H108       22.8912    3.7851   -5.2365 H         1 UNK         0.0814 
    109 H109       23.7627    3.1220   -3.8627 H         1 UNK         0.0814 
    110 H110       24.9601    1.2881   -7.1664 H         1 UNK         0.2983 
    111 H111       24.1462    2.4438   -9.6739 H         1 UNK         0.0947 
    112 H112       24.6179    0.1492  -10.5282 H         1 UNK         0.0806 
    113 H113       23.7051    0.0677   -9.0299 H         1 UNK         0.0806 
    114 H114       25.4370   -0.2637   -9.0282 H         1 UNK         0.0806 
    115 H115       27.1511    2.5149   -8.0959 H         1 UNK         0.3000 
    116 H116       29.2230    3.0666   -8.5617 H         1 UNK         0.0850 
    117 H117       28.1381    4.3060  -11.1463 H         1 UNK         0.0810 
    118 H118       28.1617    5.0902   -9.5668 H         1 UNK         0.0810 
    119 H119       29.6688    4.6853  -10.3719 H         1 UNK         0.0810 
    120 H120       28.8493    0.4588   -8.9255 H         1 UNK         0.3040 
    121 H121       29.9104   -0.5486  -11.4185 H         1 UNK         0.0766 
    122 H122       30.1816   -2.6659  -10.0495 H         1 UNK         0.0812 
    123 H123       28.5613   -1.9910   -9.9531 H         1 UNK         0.0812 
    124 H124       29.6839   -1.7691   -8.6205 H         1 UNK         0.0812 
    125 H125       31.9874   -1.4193  -11.7909 H         1 UNK         0.3205 
    126 H126       34.0758    0.3748  -11.0055 H         1 UNK         0.0754 
    127 H127       35.3606   -0.8249  -12.7569 H         1 UNK         0.0769 
    128 H128       33.7594   -0.4063  -13.3347 H         1 UNK         0.0769 
    129 H129       34.1175   -2.0653  -12.8529 H         1 UNK         0.0769 
    130 H130       33.6089   -0.6106   -8.6267 H         1 UNK         0.2981 
    131 H131       35.5461   -2.7211   -7.9467 H         1 UNK         0.0541 
    132 H132       37.4670    0.8082   -7.7583 H         1 UNK         0.3459 
    133 H133       35.9593    0.6404   -8.6220 H         1 UNK         0.3459 
    134 H134       33.8363   -0.9618   -6.1318 H         1 UNK         0.0612 
    135 H135       34.8958   -2.2268   -5.5652 H         1 UNK         0.0612 
    136 H136       31.5233   -1.3193   -7.0430 H         1 UNK         0.0624 
    137 H137       30.6545   -2.8193   -6.8163 H         1 UNK         0.0624 
@<TRIPOS>BOND
     1    1    2 1    
     2    1   72 1    
     3    1   73 1    
     4    1   74 1    
     5    2    3 2    
     6    2    4 am   BACKBONE|DICT|INTERRES
     7    4    5 1    
     8    4   75 1    
     9    5    6 1    
    10    5   35 1    
    11    5   76 1    
    12    6    7 1    
    13    6   77 1    
    14    6   78 1    
    15    7    8 1    
    16    8    9 1    
    17    8   79 1    
    18    8   80 1    
    19    9   10 ar   
    20    9   14 ar   
    21   10   11 ar   
    22   10   81 1    
    23   11   12 ar   
    24   11   71 1    
    25   12   13 ar   
    26   12   82 1    
    27   13   14 ar   
    28   13   15 1    
    29   14   83 1    
    30   15   16 1    
    31   15   84 1    
    32   15   85 1    
    33   16   17 1    
    34   17   18 1    
    35   17   86 1    
    36   17   87 1    
    37   18   19 1    
    38   18   37 1    
    39   18   88 1    
    40   19   20 am   BACKBONE|DICT|INTERRES
    41   19   89 1    
    42   20   21 2    
    43   20   22 1    
    44   22   23 1    
    45   22   24 1    
    46   22   90 1    
    47   23   91 1    
    48   23   92 1    
    49   23   93 1    
    50   24   25 am   BACKBONE|DICT|INTERRES
    51   24   94 1    
    52   25   26 2    
    53   25   27 1    
    54   27   28 1    
    55   27   29 1    
    56   27   95 1    
    57   28   96 1    
    58   28   97 1    
    59   28   98 1    
    60   29   30 am   BACKBONE|DICT|INTERRES
    61   29   99 1    
    62   30   31 2    
    63   30   32 1    
    64   32   33 1    
    65   32   34 1    
    66   32  100 1    
    67   33  101 1    
    68   33  102 1    
    69   33  103 1    
    70   34   35 am   BACKBONE|DICT|INTERRES
    71   34  104 1    
    72   35   36 2    
    73   37   38 2    
    74   37   39 am   BACKBONE|DICT|INTERRES
    75   39   40 1    
    76   39  105 1    
    77   40   41 1    
    78   40   42 1    
    79   40  106 1    
    80   41  107 1    
    81   41  108 1    
    82   41  109 1    
    83   42   43 2    
    84   42   44 am   BACKBONE|DICT|INTERRES
    85   44   45 1    
    86   44  110 1    
    87   45   46 1    
    88   45   47 1    
    89   45  111 1    
    90   46  112 1    
    91   46  113 1    
    92   46  114 1    
    93   47   48 2    
    94   47   49 am   BACKBONE|DICT|INTERRES
    95   49   50 1    
    96   49  115 1    
    97   50   51 1    
    98   50   52 1    
    99   50  116 1    
   100   51  117 1    
   101   51  118 1    
   102   51  119 1    
   103   52   53 2    
   104   52   54 am   BACKBONE|DICT|INTERRES
   105   54   55 1    
   106   54  120 1    
   107   55   56 1    
   108   55   57 1    
   109   55  121 1    
   110   56  122 1    
   111   56  123 1    
   112   56  124 1    
   113   57   58 2    
   114   57   59 am   BACKBONE|DICT|INTERRES
   115   59   60 1    
   116   59  125 1    
   117   60   61 1    
   118   60   62 1    
   119   60  126 1    
   120   61  127 1    
   121   61  128 1    
   122   61  129 1    
   123   62   63 2    
   124   62   64 am   BACKBONE|DICT|INTERRES
   125   64   65 1    
   126   64  130 1    
   127   65   66 1    
   128   65   69 1    
   129   65  131 1    
   130   66   67 am   BACKBONE|DICT|INTERRES
   131   66   68 2    
   132   67  132 1    
   133   67  133 1    
   134   69   70 1    
   135   69  134 1    
   136   69  135 1    
   137   70   71 1    
   138   71  136 1    
   139   71  137 1    
@<TRIPOS>SUBSTRUCTURE
     1 UNK         1 GROUP             0       ****    0 ROOT    
