@<TRIPOS>MOLECULE
3R137
137   139    1
SMALL
USER_CHARGES


@<TRIPOS>ATOM
      1 CA         30.1283   -0.1212    1.1262 C.3       0 UNK        -0.2020 
      2 C          29.3453   -0.8664    0.0559 C.2       0 UNK         0.4855 
      3 O          28.8322   -0.2417   -0.8724 O.2       0 UNK        -0.5197 
      4 N          29.2582   -2.1970    0.1731 N.am      1 UNK        -0.4892 
      5 CA         28.5335   -3.0708   -0.7550 C.3       1 UNK         0.0835 
      6 C6         28.9256   -4.5629   -0.5963 C.3       12 UNK        -0.0855 
      7 S7         30.7309   -4.8421   -0.6469 S.3       12 UNK        -0.2931 
      8 C8         30.9980   -5.3875   -2.3683 C.3       12 UNK         0.0378 
      9 C9         30.6982   -4.3178   -3.4162 C.ar      12 UNK        -0.0802 
     10 C10        31.0900   -2.9859   -3.2308 C.ar      12 UNK        -0.0944 
     11 C11        30.8204   -2.0206   -4.2052 C.ar      12 UNK        -0.0787 
     12 C12        30.1616   -2.3952   -5.3782 C.ar      12 UNK        -0.0862 
     13 C13        29.7919   -3.7253   -5.5925 C.ar      12 UNK        -0.0733 
     14 C14        30.0595   -4.6802   -4.6069 C.ar      12 UNK        -0.0832 
     15 C15        29.1345   -4.1308   -6.9050 C.3       12 UNK         0.0240 
     16 S16        27.4576   -4.8096   -6.6889 S.3       12 UNK        -0.2522 
     17 C17        26.5794   -3.4561   -5.8419 C.3       12 UNK        -0.0967 
     18 CA         26.0149   -2.3899   -6.8197 C.3       5 UNK         0.0660 
     19 N          24.6951   -1.9208   -6.3983 N.am      5 UNK        -0.4015 
     20 C          23.7446   -1.4493   -7.2158 C.2       4 UNK         0.4946 
     21 O          23.8525   -1.4088   -8.4413 O.2       4 UNK        -0.5353 
     22 CA         22.4493   -0.9338   -6.5604 C.3       4 UNK         0.0277 
     23 CB         21.3693   -2.0277   -6.5759 C.3       4 UNK        -0.1981 
     24 N          22.6416   -0.4647   -5.1847 N.am      4 UNK        -0.4209 
     25 C          23.2962    0.6574   -4.8545 C.2       3 UNK         0.4942 
     26 O          23.7620    1.4442   -5.6770 O.2       3 UNK        -0.5208 
     27 CA         23.5055    0.9259   -3.3536 C.3       3 UNK         0.0250 
     28 CB         22.3108    1.7010   -2.7752 C.3       3 UNK        -0.1990 
     29 N          23.7499   -0.2762   -2.5438 N.am      3 UNK        -0.4232 
     30 C          24.7451   -1.1503   -2.7463 C.2       2 UNK         0.4993 
     31 O          25.5120   -1.1090   -3.7123 O.2       2 UNK        -0.5286 
     32 CA         24.8954   -2.2872   -1.7340 C.3       2 UNK         0.0209 
     33 CB         24.0676   -3.5109   -2.1609 C.3       2 UNK        -0.1931 
     34 N          26.3099   -2.6456   -1.6923 N.am      2 UNK        -0.4546 
     35 C          27.0139   -2.8816   -0.5824 C.2       1 UNK         0.5154 
     36 O          26.5159   -2.9536    0.5445 O.2       1 UNK        -0.5181 
     37 C          26.9653   -1.1876   -6.9654 C.2       5 UNK         0.5014 
     38 O          27.6111   -1.0352   -8.0014 O.2       5 UNK        -0.5248 
     39 N          26.9966   -0.3286   -5.9357 N.am      6 UNK        -0.4434 
     40 CA         27.8085    0.8895   -5.8493 C.3       6 UNK         0.0363 
     41 CB         27.7499    1.4196   -4.4076 C.3       6 UNK        -0.1936 
     42 C          27.4298    1.9897   -6.8607 C.2       6 UNK         0.5081 
     43 O          28.1805    2.9546   -7.0058 O.2       6 UNK        -0.5248 
     44 N          26.2940    1.8301   -7.5536 N.am      7 UNK        -0.4718 
     45 CA         25.8994    2.6279   -8.7153 C.3       7 UNK         0.0273 
     46 CB         24.4363    2.3148   -9.0677 C.3       7 UNK        -0.1935 
     47 C          26.8093    2.4006   -9.9390 C.2       7 UNK         0.5018 
     48 O          26.9223    3.3020  -10.7713 O.2       7 UNK        -0.5186 
     49 N          27.4431    1.2219  -10.0298 N.am      8 UNK        -0.4240 
     50 CA         28.4777    0.9147  -11.0158 C.3       8 UNK         0.0235 
     51 CB         28.4381   -0.5890  -11.3350 C.3       8 UNK        -0.2000 
     52 C          29.8520    1.3037  -10.4540 C.2       8 UNK         0.4941 
     53 O          30.0525    1.2710   -9.2372 O.2       8 UNK        -0.5273 
     54 N          30.8054    1.6024  -11.3458 N.am      9 UNK        -0.4262 
     55 CA         32.1798    2.0208  -11.0298 C.3       9 UNK         0.0264 
     56 CB         32.7858    2.7066  -12.2693 C.3       9 UNK        -0.1955 
     57 C          33.0847    0.8926  -10.4790 C.2       9 UNK         0.5031 
     58 O          34.2647    0.8232  -10.8282 O.2       9 UNK        -0.5390 
     59 N          32.5232    0.0302   -9.6247 N.am      10 UNK        -0.4204 
     60 CA         33.2203   -1.0382   -8.9084 C.3       10 UNK         0.0237 
     61 CB         32.2017   -2.1171   -8.5075 C.3       10 UNK        -0.1985 
     62 C          33.9775   -0.5152   -7.6751 C.2       10 UNK         0.4970 
     63 O          34.9753   -1.1237   -7.2864 O.2       10 UNK        -0.4914 
     64 N          33.5035    0.5978   -7.1015 N.am      11 UNK        -0.4285 
     65 CA         34.1325    1.3320   -5.9961 C.3       11 UNK         0.1007 
     66 C          34.4056    2.7980   -6.4213 C.2       11 UNK         0.5703 
     67 N          35.3589    3.4608   -5.7808 N.am      11 UNK        -0.7361 
     68 O          33.7510    3.3486   -7.3062 O.2       11 UNK        -0.4986 
     69 C69        33.2799    1.2818   -4.6986 C.3       12 UNK        -0.0947 
     70 S70        33.0642   -0.4199   -4.0761 S.3       12 UNK        -0.2240 
     71 C71        31.2520   -0.5767   -4.0011 C.3       12 UNK         0.0194 
     72 H72        30.5366   -0.7963    1.8781 H         1 UNK         0.0906 
     73 H73        30.9569    0.4225    0.6732 H         1 UNK         0.0906 
     74 H74        29.4832    0.5981    1.6300 H         1 UNK         0.0906 
     75 H75        29.6911   -2.6635    0.9574 H         1 UNK         0.3140 
     76 H76        28.7973   -2.7604   -1.7674 H         1 UNK         0.1085 
     77 H77        28.5627   -4.9527    0.3570 H         1 UNK         0.0836 
     78 H78        28.4461   -5.1664   -1.3696 H         1 UNK         0.0836 
     79 H79        30.3981   -6.2816   -2.5458 H         1 UNK         0.0731 
     80 H80        32.0400   -5.6907   -2.4773 H         1 UNK         0.0731 
     81 H81        31.6070   -2.6952   -2.3265 H         1 UNK         0.1312 
     82 H82        29.9499   -1.6517   -6.1336 H         1 UNK         0.1406 
     83 H83        29.7731   -5.7097   -4.7757 H         1 UNK         0.1631 
     84 H84        29.7554   -4.8855   -7.3894 H         1 UNK         0.0717 
     85 H85        29.0914   -3.2898   -7.5982 H         1 UNK         0.0717 
     86 H86        25.7600   -3.9379   -5.3060 H         1 UNK         0.0934 
     87 H87        27.2039   -3.0238   -5.0579 H         1 UNK         0.0934 
     88 H88        25.9049   -2.8435   -7.8075 H         1 UNK         0.0739 
     89 H89        24.5564   -1.8404   -5.3990 H         1 UNK         0.3093 
     90 H90        22.0931   -0.0929   -7.1599 H         1 UNK         0.0818 
     91 H91        20.4212   -1.6555   -6.1874 H         1 UNK         0.0819 
     92 H92        21.1846   -2.3783   -7.5925 H         1 UNK         0.0819 
     93 H93        21.6607   -2.8942   -5.9809 H         1 UNK         0.0819 
     94 H94        22.2785   -1.0462   -4.4432 H         1 UNK         0.3041 
     95 H95        24.3917    1.5574   -3.2640 H         1 UNK         0.0784 
     96 H96        22.1210    2.6100   -3.3481 H         1 UNK         0.0793 
     97 H97        21.3957    1.1076   -2.7930 H         1 UNK         0.0793 
     98 H98        22.4952    2.0046   -1.7445 H         1 UNK         0.0793 
     99 H99        23.1516   -0.4007   -1.7393 H         1 UNK         0.3024 
    100 H100       24.5608   -1.9344   -0.7554 H         1 UNK         0.1171 
    101 H101       24.1848   -4.3313   -1.4525 H         1 UNK         0.0786 
    102 H102       23.0044   -3.2712   -2.2044 H         1 UNK         0.0786 
    103 H103       24.3624   -3.8769   -3.1451 H         1 UNK         0.0786 
    104 H104       26.7924   -2.5116   -2.5716 H         1 UNK         0.2977 
    105 H105       26.4299   -0.5430   -5.1149 H         1 UNK         0.3127 
    106 H106       28.8400    0.6107   -6.0711 H         1 UNK         0.0770 
    107 H107       26.7357    1.7073   -4.1292 H         1 UNK         0.0814 
    108 H108       28.3853    2.2978   -4.2859 H         1 UNK         0.0814 
    109 H109       28.0936    0.6705   -3.6932 H         1 UNK         0.0814 
    110 H110       25.6967    1.0525   -7.3109 H         1 UNK         0.2983 
    111 H111       25.9720    3.6828   -8.4422 H         1 UNK         0.0947 
    112 H112       24.1032    2.9110   -9.9183 H         1 UNK         0.0806 
    113 H113       23.7703    2.5403   -8.2346 H         1 UNK         0.0806 
    114 H114       24.3005    1.2650   -9.3311 H         1 UNK         0.0806 
    115 H115       27.3613    0.5623   -9.2617 H         1 UNK         0.3000 
    116 H116       28.2928    1.4749  -11.9351 H         1 UNK         0.0850 
    117 H117       29.1608   -0.8447  -12.1108 H         1 UNK         0.0810 
    118 H118       27.4549   -0.8920  -11.6955 H         1 UNK         0.0810 
    119 H119       28.6740   -1.1954  -10.4594 H         1 UNK         0.0810 
    120 H120       30.5755    1.5509  -12.3283 H         1 UNK         0.3040 
    121 H121       32.1217    2.7721  -10.2388 H         1 UNK         0.0766 
    122 H122       32.8996    2.0087  -13.0997 H         1 UNK         0.0812 
    123 H123       33.7726    3.1166  -12.0497 H         1 UNK         0.0812 
    124 H124       32.1655    3.5365  -12.6085 H         1 UNK         0.0812 
    125 H125       31.5533    0.2106   -9.3714 H         1 UNK         0.3205 
    126 H126       33.9539   -1.4925   -9.5778 H         1 UNK         0.0754 
    127 H127       32.6707   -2.9053   -7.9164 H         1 UNK         0.0769 
    128 H128       31.7588   -2.5882   -9.3851 H         1 UNK         0.0769 
    129 H129       31.3922   -1.6972   -7.9123 H         1 UNK         0.0769 
    130 H130       32.7162    1.0659   -7.5263 H         1 UNK         0.2981 
    131 H131       35.1058    0.8882   -5.7777 H         1 UNK         0.0541 
    132 H132       35.5449    4.4180   -6.0367 H         1 UNK         0.3459 
    133 H133       35.8974    3.0247   -5.0484 H         1 UNK         0.3459 
    134 H134       32.3084    1.7514   -4.8614 H         1 UNK         0.0612 
    135 H135       33.7616    1.8550   -3.9045 H         1 UNK         0.0612 
    136 H136       30.7944    0.0591   -4.7593 H         1 UNK         0.0624 
    137 H137       30.8953   -0.2156   -3.0353 H         1 UNK         0.0624 
@<TRIPOS>BOND
     1    1    2 1    
     2    1   72 1    
     3    1   73 1    
     4    1   74 1    
     5    2    3 2    
     6    2    4 am   BACKBONE|DICT|INTERRES
     7    4    5 1    
     8    4   75 1    
     9    5    6 1    
    10    5   35 1    
    11    5   76 1    
    12    6    7 1    
    13    6   77 1    
    14    6   78 1    
    15    7    8 1    
    16    8    9 1    
    17    8   79 1    
    18    8   80 1    
    19    9   10 ar   
    20    9   14 ar   
    21   10   11 ar   
    22   10   81 1    
    23   11   12 ar   
    24   11   71 1    
    25   12   13 ar   
    26   12   82 1    
    27   13   14 ar   
    28   13   15 1    
    29   14   83 1    
    30   15   16 1    
    31   15   84 1    
    32   15   85 1    
    33   16   17 1    
    34   17   18 1    
    35   17   86 1    
    36   17   87 1    
    37   18   19 1    
    38   18   37 1    
    39   18   88 1    
    40   19   20 am   BACKBONE|DICT|INTERRES
    41   19   89 1    
    42   20   21 2    
    43   20   22 1    
    44   22   23 1    
    45   22   24 1    
    46   22   90 1    
    47   23   91 1    
    48   23   92 1    
    49   23   93 1    
    50   24   25 am   BACKBONE|DICT|INTERRES
    51   24   94 1    
    52   25   26 2    
    53   25   27 1    
    54   27   28 1    
    55   27   29 1    
    56   27   95 1    
    57   28   96 1    
    58   28   97 1    
    59   28   98 1    
    60   29   30 am   BACKBONE|DICT|INTERRES
    61   29   99 1    
    62   30   31 2    
    63   30   32 1    
    64   32   33 1    
    65   32   34 1    
    66   32  100 1    
    67   33  101 1    
    68   33  102 1    
    69   33  103 1    
    70   34   35 am   BACKBONE|DICT|INTERRES
    71   34  104 1    
    72   35   36 2    
    73   37   38 2    
    74   37   39 am   BACKBONE|DICT|INTERRES
    75   39   40 1    
    76   39  105 1    
    77   40   41 1    
    78   40   42 1    
    79   40  106 1    
    80   41  107 1    
    81   41  108 1    
    82   41  109 1    
    83   42   43 2    
    84   42   44 am   BACKBONE|DICT|INTERRES
    85   44   45 1    
    86   44  110 1    
    87   45   46 1    
    88   45   47 1    
    89   45  111 1    
    90   46  112 1    
    91   46  113 1    
    92   46  114 1    
    93   47   48 2    
    94   47   49 am   BACKBONE|DICT|INTERRES
    95   49   50 1    
    96   49  115 1    
    97   50   51 1    
    98   50   52 1    
    99   50  116 1    
   100   51  117 1    
   101   51  118 1    
   102   51  119 1    
   103   52   53 2    
   104   52   54 am   BACKBONE|DICT|INTERRES
   105   54   55 1    
   106   54  120 1    
   107   55   56 1    
   108   55   57 1    
   109   55  121 1    
   110   56  122 1    
   111   56  123 1    
   112   56  124 1    
   113   57   58 2    
   114   57   59 am   BACKBONE|DICT|INTERRES
   115   59   60 1    
   116   59  125 1    
   117   60   61 1    
   118   60   62 1    
   119   60  126 1    
   120   61  127 1    
   121   61  128 1    
   122   61  129 1    
   123   62   63 2    
   124   62   64 am   BACKBONE|DICT|INTERRES
   125   64   65 1    
   126   64  130 1    
   127   65   66 1    
   128   65   69 1    
   129   65  131 1    
   130   66   67 am   BACKBONE|DICT|INTERRES
   131   66   68 2    
   132   67  132 1    
   133   67  133 1    
   134   69   70 1    
   135   69  134 1    
   136   69  135 1    
   137   70   71 1    
   138   71  136 1    
   139   71  137 1    
@<TRIPOS>SUBSTRUCTURE
     1 UNK         1 GROUP             0       ****    0 ROOT    
