@<TRIPOS>MOLECULE
3R137
137   139    1
SMALL
USER_CHARGES


@<TRIPOS>ATOM
      1 CA         25.8271   -4.8566   -2.2298 C.3       0 UNK        -0.2020 
      2 C          26.7241   -4.1447   -1.2319 C.2       0 UNK         0.4855 
      3 O          26.2445   -3.7115   -0.1844 O.2       0 UNK        -0.5197 
      4 N          28.0220   -4.0230   -1.5424 N.am      1 UNK        -0.4892 
      5 CA         29.0348   -3.4476   -0.6436 C.3       1 UNK         0.0835 
      6 C6         30.4598   -4.0016   -0.9038 C.3       12 UNK        -0.0855 
      7 S7         30.4932   -5.8300   -1.0182 S.3       12 UNK        -0.2931 
      8 C8         31.3039   -6.1430   -2.6228 C.3       12 UNK         0.0378 
      9 C9         30.6528   -5.3885   -3.7744 C.ar      12 UNK        -0.0802 
     10 C10        31.2816   -4.2598   -4.3016 C.ar      12 UNK        -0.0944 
     11 C11        30.6921   -3.5254   -5.3328 C.ar      12 UNK        -0.0787 
     12 C12        29.4757   -3.9606   -5.8680 C.ar      12 UNK        -0.0862 
     13 C13        28.8480   -5.1178   -5.3806 C.ar      12 UNK        -0.0733 
     14 C14        29.4424   -5.8186   -4.3243 C.ar      12 UNK        -0.0832 
     15 C15        27.5665   -5.6844   -5.9983 C.3       12 UNK         0.0240 
     16 S16        26.5449   -4.5015   -6.9394 S.3       12 UNK        -0.2522 
     17 C17        25.9660   -3.4022   -5.6053 C.3       12 UNK        -0.0967 
     18 CA         25.0716   -2.2419   -6.1019 C.3       5 UNK         0.0660 
     19 N          24.5666   -1.4482   -4.9824 N.am      5 UNK        -0.4015 
     20 C          23.2994   -1.0363   -4.8373 C.2       4 UNK         0.4946 
     21 O          22.3654   -1.4068   -5.5496 O.2       4 UNK        -0.5353 
     22 CA         23.0276   -0.0121   -3.7166 C.3       4 UNK         0.0277 
     23 CB         22.6580   -0.7315   -2.4090 C.3       4 UNK        -0.1981 
     24 N          24.1667    0.8784   -3.4743 N.am      4 UNK        -0.4209 
     25 C          24.6722    1.7375   -4.3721 C.2       3 UNK         0.4942 
     26 O          24.1122    2.0134   -5.4326 O.2       3 UNK        -0.5208 
     27 CA         26.0455    2.3705   -4.0672 C.3       3 UNK         0.0250 
     28 CB         25.9000    3.8794   -3.8125 C.3       3 UNK        -0.1990 
     29 N          26.7870    1.7719   -2.9507 N.am      3 UNK        -0.4232 
     30 C          27.1958    0.5005   -2.8358 C.2       2 UNK         0.4993 
     31 O          26.9653   -0.3774   -3.6776 O.2       2 UNK        -0.5286 
     32 CA         27.9345    0.1571   -1.5335 C.3       2 UNK         0.0209 
     33 CB         27.0990    0.5608   -0.2955 C.3       2 UNK        -0.1931 
     34 N          28.2141   -1.2760   -1.4964 N.am      2 UNK        -0.4546 
     35 C          29.0204   -1.9018   -0.6281 C.2       1 UNK         0.5154 
     36 O          29.7258   -1.3059    0.1879 O.2       1 UNK        -0.5181 
     37 C          25.8078   -1.3087   -7.0811 C.2       5 UNK         0.5014 
     38 O          25.5289   -1.3484   -8.2809 O.2       5 UNK        -0.5248 
     39 N          26.7298   -0.4876   -6.5532 N.am      6 UNK        -0.4434 
     40 CA         27.5781    0.4984   -7.2362 C.3       6 UNK         0.0363 
     41 CB         26.7458    1.5820   -7.9487 C.3       6 UNK        -0.1936 
     42 C          28.6250   -0.0901   -8.1961 C.2       6 UNK         0.5081 
     43 O          29.7665    0.3632   -8.1525 O.2       6 UNK        -0.5248 
     44 N          28.2312   -1.0476   -9.0474 N.am      7 UNK        -0.4718 
     45 CA         29.0275   -1.7066  -10.0945 C.3       7 UNK         0.0273 
     46 CB         30.0385   -2.6929   -9.4766 C.3       7 UNK        -0.1935 
     47 C          29.6946   -0.6976  -11.0495 C.2       7 UNK         0.5018 
     48 O          30.9225   -0.6386  -11.1300 O.2       7 UNK        -0.5186 
     49 N          28.8556    0.1064  -11.7205 N.am      8 UNK        -0.4240 
     50 CA         29.2251    1.2062  -12.6242 C.3       8 UNK         0.0235 
     51 CB         29.9510    0.6778  -13.8812 C.3       8 UNK        -0.2000 
     52 C          29.9982    2.3292  -11.9024 C.2       8 UNK         0.4941 
     53 O          30.9976    2.8293  -12.4217 O.2       8 UNK        -0.5273 
     54 N          29.4984    2.7002  -10.7135 N.am      9 UNK        -0.4262 
     55 CA         30.0008    3.7526   -9.8204 C.3       9 UNK         0.0264 
     56 CB         29.8753    5.1439  -10.4789 C.3       9 UNK        -0.1955 
     57 C          31.4100    3.4815   -9.2536 C.2       9 UNK         0.5031 
     58 O          32.1468    4.4291   -8.9737 O.2       9 UNK        -0.5390 
     59 N          31.7482    2.2017   -9.0505 N.am      10 UNK        -0.4204 
     60 CA         32.9514    1.7675   -8.3402 C.3       10 UNK         0.0237 
     61 CB         33.2914    0.3222   -8.7404 C.3       10 UNK        -0.1985 
     62 C          32.7669    1.8796   -6.8181 C.2       10 UNK         0.4970 
     63 O          33.6679    2.3676   -6.1348 O.2       10 UNK        -0.4914 
     64 N          31.6013    1.4366   -6.3301 N.am      11 UNK        -0.4285 
     65 CA         31.2067    1.4439   -4.9112 C.3       11 UNK         0.1007 
     66 C          30.1586    2.5382   -4.5670 C.2       11 UNK         0.5703 
     67 N          29.6878    3.3342   -5.5202 N.am      11 UNK        -0.7361 
     68 O          29.7800    2.6814   -3.4077 O.2       11 UNK        -0.4986 
     69 C69        30.7387    0.0396   -4.4412 C.3       12 UNK        -0.0947 
     70 S70        32.0678   -1.1942   -4.6213 S.3       12 UNK        -0.2240 
     71 C71        31.4011   -2.3028   -5.9074 C.3       12 UNK         0.0194 
     72 H72        26.3870   -5.2152   -3.0916 H         1 UNK         0.0906 
     73 H73        25.0431   -4.1832   -2.5746 H         1 UNK         0.0906 
     74 H74        25.3519   -5.7157   -1.7571 H         1 UNK         0.0906 
     75 H75        28.3809   -4.4085   -2.4052 H         1 UNK         0.3140 
     76 H76        28.7708   -3.7480    0.3733 H         1 UNK         0.1085 
     77 H77        30.8881   -3.5485   -1.7961 H         1 UNK         0.0836 
     78 H78        31.1248   -3.7120   -0.0878 H         1 UNK         0.0836 
     79 H79        31.2765   -7.2139   -2.8292 H         1 UNK         0.0731 
     80 H80        32.3596   -5.8793   -2.5396 H         1 UNK         0.0731 
     81 H81        32.2322   -3.9422   -3.8956 H         1 UNK         0.1312 
     82 H82        29.0347   -3.4046   -6.6817 H         1 UNK         0.1406 
     83 H83        28.9721   -6.7126   -3.9359 H         1 UNK         0.1631 
     84 H84        26.9446   -6.1387   -5.2262 H         1 UNK         0.0717 
     85 H85        27.8496   -6.4927   -6.6736 H         1 UNK         0.0717 
     86 H86        25.3889   -4.0156   -4.9148 H         1 UNK         0.0934 
     87 H87        26.8230   -3.0254   -5.0437 H         1 UNK         0.0934 
     88 H88        24.2333   -2.6832   -6.6458 H         1 UNK         0.0739 
     89 H89        25.2692   -1.0670   -4.3568 H         1 UNK         0.3093 
     90 H90        22.1798    0.6026   -4.0268 H         1 UNK         0.0818 
     91 H91        21.7978   -1.3864   -2.5551 H         1 UNK         0.0819 
     92 H92        23.4778   -1.3488   -2.0387 H         1 UNK         0.0819 
     93 H93        22.3916   -0.0209   -1.6263 H         1 UNK         0.0819 
     94 H94        24.6774    0.7406   -2.6151 H         1 UNK         0.3041 
     95 H95        26.6589    2.2394   -4.9589 H         1 UNK         0.0784 
     96 H96        25.3999    4.3721   -4.6477 H         1 UNK         0.0793 
     97 H97        25.3132    4.0820   -2.9156 H         1 UNK         0.0793 
     98 H98        26.8726    4.3579   -3.6942 H         1 UNK         0.0793 
     99 H99        27.0439    2.4119   -2.2127 H         1 UNK         0.3024 
    100 H100       28.8819    0.7009   -1.5323 H         1 UNK         0.1171 
    101 H101       26.9006    1.6325   -0.2685 H         1 UNK         0.0786 
    102 H102       26.1372    0.0465   -0.2764 H         1 UNK         0.0786 
    103 H103       27.6157    0.3235    0.6343 H         1 UNK         0.0786 
    104 H104       27.7093   -1.8224   -2.1823 H         1 UNK         0.2977 
    105 H105       26.8966   -0.5540   -5.5516 H         1 UNK         0.3127 
    106 H106       28.1361    0.9906   -6.4391 H         1 UNK         0.0770 
    107 H107       26.1978    1.1836   -8.8029 H         1 UNK         0.0814 
    108 H108       27.3848    2.3836   -8.3183 H         1 UNK         0.0814 
    109 H109       26.0205    2.0382   -7.2775 H         1 UNK         0.0814 
    110 H110       27.2504   -1.3171   -8.9917 H         1 UNK         0.2983 
    111 H111       28.3312   -2.2909  -10.6984 H         1 UNK         0.0947 
    112 H112       30.7619   -2.1857   -8.8398 H         1 UNK         0.0806 
    113 H113       30.6026   -3.2089  -10.2545 H         1 UNK         0.0806 
    114 H114       29.5359   -3.4592   -8.8889 H         1 UNK         0.0806 
    115 H115       27.8640   -0.0230  -11.5709 H         1 UNK         0.3000 
    116 H116       28.2884    1.6555  -12.9583 H         1 UNK         0.0850 
    117 H117       30.1054    1.4776  -14.6066 H         1 UNK         0.0810 
    118 H118       29.3712   -0.1004  -14.3773 H         1 UNK         0.0810 
    119 H119       30.9318    0.2655  -13.6425 H         1 UNK         0.0810 
    120 H120       28.6836    2.2036  -10.3841 H         1 UNK         0.3040 
    121 H121       29.3371    3.7493   -8.9552 H         1 UNK         0.0766 
    122 H122       30.5643    5.2596  -11.3160 H         1 UNK         0.0812 
    123 H123       30.0983    5.9376   -9.7648 H         1 UNK         0.0812 
    124 H124       28.8650    5.3193  -10.8485 H         1 UNK         0.0812 
    125 H125       31.0639    1.4791   -9.2511 H         1 UNK         0.3205 
    126 H126       33.7874    2.4072   -8.6315 H         1 UNK         0.0754 
    127 H127       34.1931   -0.0228   -8.2329 H         1 UNK         0.0769 
    128 H128       33.4688    0.2411   -9.8131 H         1 UNK         0.0769 
    129 H129       32.4873   -0.3694   -8.4855 H         1 UNK         0.0769 
    130 H130       30.9260    1.0365   -6.9789 H         1 UNK         0.2981 
    131 H131       32.0771    1.7040   -4.3064 H         1 UNK         0.0541 
    132 H132       30.0374    3.2613   -6.4596 H         1 UNK         0.3459 
    133 H133       29.0288    4.0552   -5.2757 H         1 UNK         0.3459 
    134 H134       29.8468   -0.2797   -4.9826 H         1 UNK         0.0612 
    135 H135       30.4631    0.0571   -3.3858 H         1 UNK         0.0612 
    136 H136       30.7393   -1.7373   -6.5630 H         1 UNK         0.0624 
    137 H137       32.2287   -2.6466   -6.5286 H         1 UNK         0.0624 
@<TRIPOS>BOND
     1    1    2 1    
     2    1   72 1    
     3    1   73 1    
     4    1   74 1    
     5    2    3 2    
     6    2    4 am   BACKBONE|DICT|INTERRES
     7    4    5 1    
     8    4   75 1    
     9    5    6 1    
    10    5   35 1    
    11    5   76 1    
    12    6    7 1    
    13    6   77 1    
    14    6   78 1    
    15    7    8 1    
    16    8    9 1    
    17    8   79 1    
    18    8   80 1    
    19    9   10 ar   
    20    9   14 ar   
    21   10   11 ar   
    22   10   81 1    
    23   11   12 ar   
    24   11   71 1    
    25   12   13 ar   
    26   12   82 1    
    27   13   14 ar   
    28   13   15 1    
    29   14   83 1    
    30   15   16 1    
    31   15   84 1    
    32   15   85 1    
    33   16   17 1    
    34   17   18 1    
    35   17   86 1    
    36   17   87 1    
    37   18   19 1    
    38   18   37 1    
    39   18   88 1    
    40   19   20 am   BACKBONE|DICT|INTERRES
    41   19   89 1    
    42   20   21 2    
    43   20   22 1    
    44   22   23 1    
    45   22   24 1    
    46   22   90 1    
    47   23   91 1    
    48   23   92 1    
    49   23   93 1    
    50   24   25 am   BACKBONE|DICT|INTERRES
    51   24   94 1    
    52   25   26 2    
    53   25   27 1    
    54   27   28 1    
    55   27   29 1    
    56   27   95 1    
    57   28   96 1    
    58   28   97 1    
    59   28   98 1    
    60   29   30 am   BACKBONE|DICT|INTERRES
    61   29   99 1    
    62   30   31 2    
    63   30   32 1    
    64   32   33 1    
    65   32   34 1    
    66   32  100 1    
    67   33  101 1    
    68   33  102 1    
    69   33  103 1    
    70   34   35 am   BACKBONE|DICT|INTERRES
    71   34  104 1    
    72   35   36 2    
    73   37   38 2    
    74   37   39 am   BACKBONE|DICT|INTERRES
    75   39   40 1    
    76   39  105 1    
    77   40   41 1    
    78   40   42 1    
    79   40  106 1    
    80   41  107 1    
    81   41  108 1    
    82   41  109 1    
    83   42   43 2    
    84   42   44 am   BACKBONE|DICT|INTERRES
    85   44   45 1    
    86   44  110 1    
    87   45   46 1    
    88   45   47 1    
    89   45  111 1    
    90   46  112 1    
    91   46  113 1    
    92   46  114 1    
    93   47   48 2    
    94   47   49 am   BACKBONE|DICT|INTERRES
    95   49   50 1    
    96   49  115 1    
    97   50   51 1    
    98   50   52 1    
    99   50  116 1    
   100   51  117 1    
   101   51  118 1    
   102   51  119 1    
   103   52   53 2    
   104   52   54 am   BACKBONE|DICT|INTERRES
   105   54   55 1    
   106   54  120 1    
   107   55   56 1    
   108   55   57 1    
   109   55  121 1    
   110   56  122 1    
   111   56  123 1    
   112   56  124 1    
   113   57   58 2    
   114   57   59 am   BACKBONE|DICT|INTERRES
   115   59   60 1    
   116   59  125 1    
   117   60   61 1    
   118   60   62 1    
   119   60  126 1    
   120   61  127 1    
   121   61  128 1    
   122   61  129 1    
   123   62   63 2    
   124   62   64 am   BACKBONE|DICT|INTERRES
   125   64   65 1    
   126   64  130 1    
   127   65   66 1    
   128   65   69 1    
   129   65  131 1    
   130   66   67 am   BACKBONE|DICT|INTERRES
   131   66   68 2    
   132   67  132 1    
   133   67  133 1    
   134   69   70 1    
   135   69  134 1    
   136   69  135 1    
   137   70   71 1    
   138   71  136 1    
   139   71  137 1    
@<TRIPOS>SUBSTRUCTURE
     1 UNK         1 GROUP             0       ****    0 ROOT    
