@<TRIPOS>MOLECULE
3R137
137   139    1
SMALL
USER_CHARGES


@<TRIPOS>ATOM
      1 CA         28.9034   -3.8707   -2.5396 C.3       0 UNK        -0.2020 
      2 C          28.1964   -2.5697   -2.1941 C.2       0 UNK         0.4855 
      3 O          27.3866   -2.5346   -1.2668 O.2       0 UNK        -0.5197 
      4 N          28.5044   -1.4935   -2.9273 N.am      1 UNK        -0.4892 
      5 CA         27.9649   -0.1514   -2.6877 C.3       1 UNK         0.0835 
      6 C6         28.7557    0.9541   -3.4265 C.3       12 UNK        -0.0855 
      7 S7         30.5307    0.9303   -2.9952 S.3       12 UNK        -0.2931 
      8 C8         31.3099    0.5645   -4.5976 C.3       12 UNK         0.0378 
      9 C9         30.9622   -0.8238   -5.1142 C.ar      12 UNK        -0.0802 
     10 C10        31.6636   -1.9401   -4.6536 C.ar      12 UNK        -0.0944 
     11 C11        31.3813   -3.2098   -5.1635 C.ar      12 UNK        -0.0787 
     12 C12        30.3617   -3.3631   -6.1072 C.ar      12 UNK        -0.0862 
     13 C13        29.6397   -2.2599   -6.5715 C.ar      12 UNK        -0.0733 
     14 C14        29.9612   -0.9879   -6.0768 C.ar      12 UNK        -0.0832 
     15 C15        28.5500   -2.5007   -7.6197 C.3       12 UNK         0.0240 
     16 S16        27.4375   -1.0868   -7.9303 S.3       12 UNK        -0.2522 
     17 C17        26.0203   -1.8910   -8.7622 C.3       12 UNK        -0.0967 
     18 CA         24.7591   -1.9874   -7.8628 C.3       5 UNK         0.0660 
     19 N          25.0434   -2.7117   -6.6249 N.am      5 UNK        -0.4015 
     20 C          24.1361   -3.2256   -5.7879 C.2       4 UNK         0.4946 
     21 O          22.9192   -3.1018   -5.9328 O.2       4 UNK        -0.5353 
     22 CA         24.6736   -4.0483   -4.6076 C.3       4 UNK         0.0277 
     23 CB         26.1757   -4.3874   -4.7087 C.3       4 UNK        -0.1981 
     24 N          24.4330   -3.3090   -3.3734 N.am      4 UNK        -0.4209 
     25 C          23.5721   -3.6695   -2.4114 C.2       3 UNK         0.4942 
     26 O          22.9022   -4.7032   -2.4431 O.2       3 UNK        -0.5208 
     27 CA         23.4327   -2.7387   -1.1913 C.3       3 UNK         0.0250 
     28 CB         24.0771   -3.3751    0.0517 C.3       3 UNK        -0.1990 
     29 N          24.0183   -1.4141   -1.4067 N.am      3 UNK        -0.4232 
     30 C          23.4426   -0.4355   -2.1196 C.2       2 UNK         0.4993 
     31 O          22.3162   -0.5180   -2.6085 O.2       2 UNK        -0.5286 
     32 CA         24.2616    0.8491   -2.3389 C.3       2 UNK         0.0209 
     33 CB         23.8075    1.9509   -1.3681 C.3       2 UNK        -0.1931 
     34 N          25.7113    0.6647   -2.2165 N.am      2 UNK        -0.4546 
     35 C          26.4663   -0.0796   -3.0364 C.2       1 UNK         0.5154 
     36 O          26.0246   -0.6854   -4.0191 O.2       1 UNK        -0.5181 
     37 C          24.1416   -0.5953   -7.6262 C.2       5 UNK         0.5014 
     38 O          23.2808   -0.1844   -8.4058 O.2       5 UNK        -0.5248 
     39 N          24.6380    0.1188   -6.6009 N.am      6 UNK        -0.4434 
     40 CA         24.3874    1.5369   -6.3084 C.3       6 UNK         0.0363 
     41 CB         22.9157    1.7491   -5.8895 C.3       6 UNK        -0.1936 
     42 C          24.8073    2.4980   -7.4465 C.2       6 UNK         0.5081 
     43 O          24.2947    3.6170   -7.5059 O.2       6 UNK        -0.5248 
     44 N          25.7100    2.0606   -8.3378 N.am      7 UNK        -0.4718 
     45 CA         26.0528    2.7583   -9.5807 C.3       7 UNK         0.0273 
     46 CB         24.9674    2.4886  -10.6452 C.3       7 UNK        -0.1935 
     47 C          27.4667    2.4031  -10.0727 C.2       7 UNK         0.5018 
     48 O          27.6812    2.2773  -11.2799 O.2       7 UNK        -0.5186 
     49 N          28.4146    2.2604   -9.1412 N.am      8 UNK        -0.4240 
     50 CA         29.8386    2.0618   -9.4086 C.3       8 UNK         0.0235 
     51 CB         30.1401    0.5799   -9.7101 C.3       8 UNK        -0.2000 
     52 C          30.6338    2.5654   -8.1992 C.2       8 UNK         0.4941 
     53 O          30.0374    2.8897   -7.1681 O.2       8 UNK        -0.5273 
     54 N          31.9610    2.6101   -8.3448 N.am      9 UNK        -0.4262 
     55 CA         32.9144    2.9913   -7.3072 C.3       9 UNK         0.0264 
     56 CB         33.4447    4.4055   -7.5965 C.3       9 UNK        -0.1955 
     57 C          34.0603    1.9742   -7.2993 C.2       9 UNK         0.5031 
     58 O          34.3634    1.3891   -8.3438 O.2       9 UNK        -0.5390 
     59 N          34.6690    1.7828   -6.1194 N.am      10 UNK        -0.4204 
     60 CA         35.8513    0.9485   -5.8424 C.3       10 UNK         0.0237 
     61 CB         37.1053    1.5958   -6.4689 C.3       10 UNK        -0.1985 
     62 C          35.7264   -0.5431   -6.2288 C.2       10 UNK         0.4970 
     63 O          36.7475   -1.2275   -6.3142 O.2       10 UNK        -0.4914 
     64 N          34.4956   -1.0207   -6.4582 N.am      11 UNK        -0.4285 
     65 CA         34.1783   -2.3506   -7.0006 C.3       11 UNK         0.1007 
     66 C          34.6560   -2.5648   -8.4709 C.2       11 UNK         0.5703 
     67 N          34.8565   -1.5065   -9.2509 N.am      11 UNK        -0.7361 
     68 O          34.8260   -3.6938   -8.9250 O.2       11 UNK        -0.4986 
     69 C69        34.5635   -3.4941   -6.0117 C.3       12 UNK        -0.0947 
     70 S70        33.3937   -4.8957   -6.0306 S.3       12 UNK        -0.2240 
     71 C71        32.2054   -4.4136   -4.7340 C.3       12 UNK         0.0194 
     72 H72        28.3325   -4.7250   -2.1769 H         1 UNK         0.0906 
     73 H73        29.8890   -3.8982   -2.0761 H         1 UNK         0.0906 
     74 H74        29.0252   -3.9802   -3.6159 H         1 UNK         0.0906 
     75 H75        29.1749   -1.5662   -3.6812 H         1 UNK         0.3140 
     76 H76        28.0658    0.0372   -1.6162 H         1 UNK         0.1085 
     77 H77        28.6229    0.8761   -4.5057 H         1 UNK         0.0836 
     78 H78        28.3694    1.9385   -3.1552 H         1 UNK         0.0836 
     79 H79        31.0145    1.3265   -5.3174 H         1 UNK         0.0731 
     80 H80        32.3912    0.6520   -4.4863 H         1 UNK         0.0731 
     81 H81        32.4516   -1.8150   -3.9232 H         1 UNK         0.1312 
     82 H82        30.1476   -4.3482   -6.4998 H         1 UNK         0.1406 
     83 H83        29.4412   -0.1126   -6.4383 H         1 UNK         0.1631 
     84 H84        29.0238   -2.7802   -8.5617 H         1 UNK         0.0717 
     85 H85        27.9510   -3.3568   -7.3069 H         1 UNK         0.0717 
     86 H86        25.7978   -1.3384   -9.6776 H         1 UNK         0.0934 
     87 H87        26.3126   -2.8880   -9.0958 H         1 UNK         0.0934 
     88 H88        24.0126   -2.5693   -8.4083 H         1 UNK         0.0739 
     89 H89        26.0192   -2.8257   -6.3978 H         1 UNK         0.3093 
     90 H90        24.1217   -4.9905   -4.6086 H         1 UNK         0.0818 
     91 H91        26.4825   -5.0183   -3.8747 H         1 UNK         0.0819 
     92 H92        26.3973   -4.9436   -5.6207 H         1 UNK         0.0819 
     93 H93        26.8020   -3.4948   -4.6959 H         1 UNK         0.0819 
     94 H94        24.9058   -2.4164   -3.2952 H         1 UNK         0.3041 
     95 H95        22.3648   -2.6189   -0.9952 H         1 UNK         0.0784 
     96 H96        23.6292   -4.3455    0.2703 H         1 UNK         0.0793 
     97 H97        25.1472   -3.5349   -0.0850 H         1 UNK         0.0793 
     98 H98        23.9399   -2.7507    0.9347 H         1 UNK         0.0793 
     99 H99        24.9521   -1.2688   -1.0478 H         1 UNK         0.3024 
    100 H100       24.0568    1.1867   -3.3539 H         1 UNK         0.1171 
    101 H101       24.3120    2.8952   -1.5741 H         1 UNK         0.0786 
    102 H102       22.7356    2.1334   -1.4586 H         1 UNK         0.0786 
    103 H103       24.0053    1.6819   -0.3297 H         1 UNK         0.0786 
    104 H104       26.1544    1.1335   -1.4387 H         1 UNK         0.2977 
    105 H105       25.3159   -0.3305   -5.9928 H         1 UNK         0.3127 
    106 H106       25.0221    1.7847   -5.4570 H         1 UNK         0.0770 
    107 H107       22.2425    1.6884   -6.7452 H         1 UNK         0.0814 
    108 H108       22.5895    1.0046   -5.1636 H         1 UNK         0.0814 
    109 H109       22.7757    2.7315   -5.4372 H         1 UNK         0.0814 
    110 H110       26.1134    1.1405   -8.2146 H         1 UNK         0.2983 
    111 H111       26.0743    3.8327   -9.3854 H         1 UNK         0.0947 
    112 H112       25.1747    3.0297  -11.5693 H         1 UNK         0.0806 
    113 H113       23.9832    2.8092  -10.3034 H         1 UNK         0.0806 
    114 H114       24.9054    1.4278  -10.8906 H         1 UNK         0.0806 
    115 H115       28.1993    2.4397   -8.1675 H         1 UNK         0.3000 
    116 H116       30.1220    2.6712  -10.2697 H         1 UNK         0.0850 
    117 H117       29.4893    0.1873  -10.4914 H         1 UNK         0.0810 
    118 H118       30.0156   -0.0455   -8.8279 H         1 UNK         0.0810 
    119 H119       31.1667    0.4487  -10.0531 H         1 UNK         0.0810 
    120 H120       32.3853    2.2513   -9.1910 H         1 UNK         0.3040 
    121 H121       32.4343    2.9853   -6.3268 H         1 UNK         0.0766 
    122 H122       32.6360    5.1366   -7.6024 H         1 UNK         0.0812 
    123 H123       33.9493    4.4575   -8.5623 H         1 UNK         0.0812 
    124 H124       34.1606    4.7208   -6.8363 H         1 UNK         0.0812 
    125 H125       34.3304    2.3115   -5.3265 H         1 UNK         0.3205 
    126 H126       35.9814    0.9603   -4.7592 H         1 UNK         0.0754 
    127 H127       37.0698    1.5685   -7.5587 H         1 UNK         0.0769 
    128 H128       38.0151    1.0796   -6.1597 H         1 UNK         0.0769 
    129 H129       37.2094    2.6370   -6.1635 H         1 UNK         0.0769 
    130 H130       33.7179   -0.3835   -6.3900 H         1 UNK         0.2981 
    131 H131       33.0935   -2.3395   -7.0936 H         1 UNK         0.0541 
    132 H132       35.1577   -1.6468  -10.2017 H         1 UNK         0.3459 
    133 H133       34.7135   -0.5654   -8.9002 H         1 UNK         0.3459 
    134 H134       34.6042   -3.1173   -4.9887 H         1 UNK         0.0612 
    135 H135       35.5671   -3.8678   -6.2215 H         1 UNK         0.0612 
    136 H136       32.7378   -4.2131   -3.8030 H         1 UNK         0.0624 
    137 H137       31.5407   -5.2548   -4.5327 H         1 UNK         0.0624 
@<TRIPOS>BOND
     1    1    2 1    
     2    1   72 1    
     3    1   73 1    
     4    1   74 1    
     5    2    3 2    
     6    2    4 am   BACKBONE|DICT|INTERRES
     7    4    5 1    
     8    4   75 1    
     9    5    6 1    
    10    5   35 1    
    11    5   76 1    
    12    6    7 1    
    13    6   77 1    
    14    6   78 1    
    15    7    8 1    
    16    8    9 1    
    17    8   79 1    
    18    8   80 1    
    19    9   10 ar   
    20    9   14 ar   
    21   10   11 ar   
    22   10   81 1    
    23   11   12 ar   
    24   11   71 1    
    25   12   13 ar   
    26   12   82 1    
    27   13   14 ar   
    28   13   15 1    
    29   14   83 1    
    30   15   16 1    
    31   15   84 1    
    32   15   85 1    
    33   16   17 1    
    34   17   18 1    
    35   17   86 1    
    36   17   87 1    
    37   18   19 1    
    38   18   37 1    
    39   18   88 1    
    40   19   20 am   BACKBONE|DICT|INTERRES
    41   19   89 1    
    42   20   21 2    
    43   20   22 1    
    44   22   23 1    
    45   22   24 1    
    46   22   90 1    
    47   23   91 1    
    48   23   92 1    
    49   23   93 1    
    50   24   25 am   BACKBONE|DICT|INTERRES
    51   24   94 1    
    52   25   26 2    
    53   25   27 1    
    54   27   28 1    
    55   27   29 1    
    56   27   95 1    
    57   28   96 1    
    58   28   97 1    
    59   28   98 1    
    60   29   30 am   BACKBONE|DICT|INTERRES
    61   29   99 1    
    62   30   31 2    
    63   30   32 1    
    64   32   33 1    
    65   32   34 1    
    66   32  100 1    
    67   33  101 1    
    68   33  102 1    
    69   33  103 1    
    70   34   35 am   BACKBONE|DICT|INTERRES
    71   34  104 1    
    72   35   36 2    
    73   37   38 2    
    74   37   39 am   BACKBONE|DICT|INTERRES
    75   39   40 1    
    76   39  105 1    
    77   40   41 1    
    78   40   42 1    
    79   40  106 1    
    80   41  107 1    
    81   41  108 1    
    82   41  109 1    
    83   42   43 2    
    84   42   44 am   BACKBONE|DICT|INTERRES
    85   44   45 1    
    86   44  110 1    
    87   45   46 1    
    88   45   47 1    
    89   45  111 1    
    90   46  112 1    
    91   46  113 1    
    92   46  114 1    
    93   47   48 2    
    94   47   49 am   BACKBONE|DICT|INTERRES
    95   49   50 1    
    96   49  115 1    
    97   50   51 1    
    98   50   52 1    
    99   50  116 1    
   100   51  117 1    
   101   51  118 1    
   102   51  119 1    
   103   52   53 2    
   104   52   54 am   BACKBONE|DICT|INTERRES
   105   54   55 1    
   106   54  120 1    
   107   55   56 1    
   108   55   57 1    
   109   55  121 1    
   110   56  122 1    
   111   56  123 1    
   112   56  124 1    
   113   57   58 2    
   114   57   59 am   BACKBONE|DICT|INTERRES
   115   59   60 1    
   116   59  125 1    
   117   60   61 1    
   118   60   62 1    
   119   60  126 1    
   120   61  127 1    
   121   61  128 1    
   122   61  129 1    
   123   62   63 2    
   124   62   64 am   BACKBONE|DICT|INTERRES
   125   64   65 1    
   126   64  130 1    
   127   65   66 1    
   128   65   69 1    
   129   65  131 1    
   130   66   67 am   BACKBONE|DICT|INTERRES
   131   66   68 2    
   132   67  132 1    
   133   67  133 1    
   134   69   70 1    
   135   69  134 1    
   136   69  135 1    
   137   70   71 1    
   138   71  136 1    
   139   71  137 1    
@<TRIPOS>SUBSTRUCTURE
     1 UNK         1 GROUP             0       ****    0 ROOT    
