@<TRIPOS>MOLECULE
3R137
137   139    1
SMALL
USER_CHARGES


@<TRIPOS>ATOM
      1 CA         25.4057   -6.3049   -1.6857 C.3       0 UNK        -0.2020 
      2 C          26.6957   -5.9111   -0.9707 C.2       0 UNK         0.4855 
      3 O          27.0774   -6.5963   -0.0238 O.2       0 UNK        -0.5197 
      4 N          27.4197   -4.8509   -1.3612 N.am      1 UNK        -0.4892 
      5 CA         27.1568   -3.8517   -2.4072 C.3       1 UNK         0.0835 
      6 C6         27.0574   -4.4136   -3.8548 C.3       12 UNK        -0.0855 
      7 S7         28.5013   -5.3948   -4.3918 S.3       12 UNK        -0.2931 
      8 C8         29.2113   -4.3544   -5.7144 C.3       12 UNK         0.0378 
      9 C9         30.2757   -3.4113   -5.1725 C.ar      12 UNK        -0.0802 
     10 C10        31.6259   -3.6411   -5.4429 C.ar      12 UNK        -0.0944 
     11 C11        32.6117   -2.7919   -4.9288 C.ar      12 UNK        -0.0787 
     12 C12        32.2326   -1.7263   -4.1060 C.ar      12 UNK        -0.0862 
     13 C13        30.8856   -1.4888   -3.8098 C.ar      12 UNK        -0.0733 
     14 C14        29.9139   -2.3222   -4.3795 C.ar      12 UNK        -0.0832 
     15 C15        30.5455   -0.3674   -2.8236 C.3       12 UNK         0.0240 
     16 S16        28.7667   -0.1281   -2.4697 S.3       12 UNK        -0.2522 
     17 C17        28.3120    1.1431   -3.6922 C.3       12 UNK        -0.0967 
     18 CA         27.8054    0.5581   -5.0314 C.3       5 UNK         0.0660 
     19 N          26.5418   -0.1848   -4.9164 N.am      5 UNK        -0.4015 
     20 C          25.9871   -0.8567   -5.9418 C.2       4 UNK         0.4946 
     21 O          26.5764   -1.0528   -7.0052 O.2       4 UNK        -0.5353 
     22 CA         24.5204   -1.3135   -5.8309 C.3       4 UNK         0.0277 
     23 CB         24.3546   -2.8236   -6.0698 C.3       4 UNK        -0.1981 
     24 N          23.8667   -0.9195   -4.5815 N.am      4 UNK        -0.4209 
     25 C          23.4099    0.3175   -4.3317 C.2       3 UNK         0.4942 
     26 O          23.5009    1.2465   -5.1355 O.2       3 UNK        -0.5208 
     27 CA         22.7911    0.5824   -2.9457 C.3       3 UNK         0.0250 
     28 CB         21.2673    0.3877   -2.9931 C.3       3 UNK        -0.1990 
     29 N          23.3544   -0.2465   -1.8747 N.am      3 UNK        -0.4232 
     30 C          24.6410   -0.2359   -1.4990 C.2       2 UNK         0.4993 
     31 O          25.4832    0.5032   -2.0088 O.2       2 UNK        -0.5286 
     32 CA         25.0860   -1.2480   -0.4218 C.3       2 UNK         0.0209 
     33 CB         23.9224   -2.0195    0.2436 C.3       2 UNK        -0.1931 
     34 N          26.0843   -2.1922   -0.9460 N.am      2 UNK        -0.4546 
     35 C          25.9545   -2.9570   -2.0408 C.2       1 UNK         0.5154 
     36 O          24.9319   -2.9902   -2.7287 O.2       1 UNK        -0.5181 
     37 C          27.7201    1.6786   -6.0856 C.2       5 UNK         0.5014 
     38 O          28.7173    1.9255   -6.7613 O.2       5 UNK        -0.5248 
     39 N          26.5429    2.3050   -6.2413 N.am      6 UNK        -0.4434 
     40 CA         26.2794    3.3050   -7.2786 C.3       6 UNK         0.0363 
     41 CB         24.9417    4.0043   -6.9905 C.3       6 UNK        -0.1936 
     42 C          26.2827    2.7049   -8.6956 C.2       6 UNK         0.5081 
     43 O          26.7661    3.3528   -9.6231 O.2       6 UNK        -0.5248 
     44 N          25.7701    1.4735   -8.8338 N.am      7 UNK        -0.4718 
     45 CA         25.7582    0.7155  -10.0878 C.3       7 UNK         0.0273 
     46 CB         24.7516   -0.4424   -9.9848 C.3       7 UNK        -0.1935 
     47 C          27.1561    0.1974  -10.4624 C.2       7 UNK         0.5018 
     48 O          27.5388    0.2753  -11.6300 O.2       7 UNK        -0.5186 
     49 N          27.9007   -0.2940   -9.4619 N.am      8 UNK        -0.4240 
     50 CA         29.2854   -0.7553   -9.5986 C.3       8 UNK         0.0235 
     51 CB         29.6343   -1.6360   -8.3858 C.3       8 UNK        -0.2000 
     52 C          30.3125    0.3846   -9.7349 C.2       8 UNK         0.4941 
     53 O          31.4681    0.1029  -10.0551 O.2       8 UNK        -0.5273 
     54 N          29.9041    1.6269   -9.4307 N.am      9 UNK        -0.4262 
     55 CA         30.7303    2.8364   -9.3011 C.3       9 UNK         0.0264 
     56 CB         31.2821    3.2734  -10.6744 C.3       9 UNK        -0.1955 
     57 C          31.8295    2.6837   -8.2275 C.2       9 UNK         0.5031 
     58 O          32.9403    3.1863   -8.4052 O.2       9 UNK        -0.5390 
     59 N          31.4907    1.9591   -7.1491 N.am      10 UNK        -0.4204 
     60 CA         32.3597    1.4745   -6.0709 C.3       10 UNK         0.0237 
     61 CB         32.7456    2.6324   -5.1281 C.3       10 UNK        -0.1985 
     62 C          33.5760    0.6817   -6.5970 C.2       10 UNK         0.4970 
     63 O          34.7055    0.9460   -6.1812 O.2       10 UNK        -0.4914 
     64 N          33.3108   -0.2544   -7.5206 N.am      11 UNK        -0.4285 
     65 CA         34.2972   -0.9740   -8.3424 C.3       11 UNK         0.1007 
     66 C          35.0307   -0.0096   -9.3171 C.2       11 UNK         0.5703 
     67 N          34.2937    0.6361  -10.2110 N.am      11 UNK        -0.7361 
     68 O          36.2487    0.1540   -9.2784 O.2       11 UNK        -0.4986 
     69 C69        35.2543   -1.8950   -7.5299 C.3       12 UNK        -0.0947 
     70 S70        34.4416   -3.4185   -6.9496 S.3       12 UNK        -0.2240 
     71 C71        34.0880   -3.0679   -5.1947 C.3       12 UNK         0.0194 
     72 H72        24.8291   -6.9915   -1.0661 H         1 UNK         0.0906 
     73 H73        24.7632   -5.4541   -1.8971 H         1 UNK         0.0906 
     74 H74        25.6327   -6.8200   -2.6182 H         1 UNK         0.0906 
     75 H75        28.2712   -4.6780   -0.8451 H         1 UNK         0.3140 
     76 H76        28.0245   -3.1931   -2.3817 H         1 UNK         0.1085 
     77 H77        26.1694   -5.0322   -3.9806 H         1 UNK         0.0836 
     78 H78        26.9264   -3.5849   -4.5509 H         1 UNK         0.0836 
     79 H79        28.4320   -3.7876   -6.2259 H         1 UNK         0.0731 
     80 H80        29.6435   -5.0118   -6.4705 H         1 UNK         0.0731 
     81 H81        31.9129   -4.4898   -6.0484 H         1 UNK         0.1312 
     82 H82        32.9933   -1.0924   -3.6703 H         1 UNK         0.1406 
     83 H83        28.8663   -2.1588   -4.1881 H         1 UNK         0.1631 
     84 H84        30.9887    0.5697   -3.1619 H         1 UNK         0.0717 
     85 H85        31.0321   -0.6018   -1.8759 H         1 UNK         0.0717 
     86 H86        29.1753    1.7929   -3.8507 H         1 UNK         0.0934 
     87 H87        27.5469    1.7805   -3.2448 H         1 UNK         0.0934 
     88 H88        28.5582   -0.1385   -5.4012 H         1 UNK         0.0739 
     89 H89        26.0240   -0.0589   -4.0536 H         1 UNK         0.3093 
     90 H90        23.9994   -0.8141   -6.6507 H         1 UNK         0.0818 
     91 H91        23.3038   -3.0844   -6.1952 H         1 UNK         0.0819 
     92 H92        24.8728   -3.1411   -6.9759 H         1 UNK         0.0819 
     93 H93        24.7414   -3.4192   -5.2474 H         1 UNK         0.0819 
     94 H94        23.8394   -1.6194   -3.8460 H         1 UNK         0.3041 
     95 H95        22.9948    1.6257   -2.6953 H         1 UNK         0.0784 
     96 H96        20.8182    1.0129   -3.7664 H         1 UNK         0.0793 
     97 H97        20.9984   -0.6463   -3.2131 H         1 UNK         0.0793 
     98 H98        20.8016    0.6631   -2.0466 H         1 UNK         0.0793 
     99 H99        22.7302   -0.9026   -1.4280 H         1 UNK         0.3024 
    100 H100       25.5822   -0.6599    0.3522 H         1 UNK         0.1171 
    101 H101       24.2914   -2.6616    1.0435 H         1 UNK         0.0786 
    102 H102       23.3878   -2.6563   -0.4624 H         1 UNK         0.0786 
    103 H103       23.2006   -1.3374    0.6952 H         1 UNK         0.0786 
    104 H104       26.9647   -2.2129   -0.4501 H         1 UNK         0.2977 
    105 H105       25.7615    2.0426   -5.6545 H         1 UNK         0.3127 
    106 H106       27.0728    4.0545   -7.2347 H         1 UNK         0.0770 
    107 H107       24.1065    3.3026   -7.0030 H         1 UNK         0.0814 
    108 H108       24.7342    4.7716   -7.7376 H         1 UNK         0.0814 
    109 H109       24.9519    4.4953   -6.0173 H         1 UNK         0.0814 
    110 H110       25.4221    1.0016   -8.0126 H         1 UNK         0.2983 
    111 H111       25.4269    1.3825  -10.8872 H         1 UNK         0.0947 
    112 H112       24.6970   -0.9928  -10.9251 H         1 UNK         0.0806 
    113 H113       23.7480   -0.0779   -9.7657 H         1 UNK         0.0806 
    114 H114       25.0268   -1.1563   -9.2079 H         1 UNK         0.0806 
    115 H115       27.4731   -0.3950   -8.5435 H         1 UNK         0.3000 
    116 H116       29.3580   -1.3671  -10.5002 H         1 UNK         0.0850 
    117 H117       30.6400   -2.0499   -8.4718 H         1 UNK         0.0810 
    118 H118       28.9470   -2.4775   -8.3010 H         1 UNK         0.0810 
    119 H119       29.5895   -1.0750   -7.4517 H         1 UNK         0.0810 
    120 H120       28.9451    1.7319   -9.1265 H         1 UNK         0.3040 
    121 H121       30.0636    3.6230   -8.9442 H         1 UNK         0.0766 
    122 H122       31.7881    4.2368  -10.6035 H         1 UNK         0.0812 
    123 H123       30.4814    3.3812  -11.4061 H         1 UNK         0.0812 
    124 H124       32.0029    2.5568  -11.0686 H         1 UNK         0.0812 
    125 H125       30.5052    1.7099   -7.0712 H         1 UNK         0.3205 
    126 H126       31.7596    0.7680   -5.4983 H         1 UNK         0.0754 
    127 H127       33.3108    2.2669   -4.2698 H         1 UNK         0.0769 
    128 H128       31.8611    3.1386   -4.7413 H         1 UNK         0.0769 
    129 H129       33.3629    3.3752   -5.6346 H         1 UNK         0.0769 
    130 H130       32.3564   -0.3531   -7.8323 H         1 UNK         0.2981 
    131 H131       33.7137   -1.6257   -8.9945 H         1 UNK         0.0541 
    132 H132       33.2850    0.5027  -10.2305 H         1 UNK         0.3459 
    133 H133       34.7345    1.2749  -10.8522 H         1 UNK         0.3459 
    134 H134       35.7258   -1.3667   -6.7017 H         1 UNK         0.0612 
    135 H135       36.0771   -2.2309   -8.1633 H         1 UNK         0.0612 
    136 H136       34.7082   -2.2411   -4.8464 H         1 UNK         0.0624 
    137 H137       34.3824   -3.9379   -4.6066 H         1 UNK         0.0624 
@<TRIPOS>BOND
     1    1    2 1    
     2    1   72 1    
     3    1   73 1    
     4    1   74 1    
     5    2    3 2    
     6    2    4 am   BACKBONE|DICT|INTERRES
     7    4    5 1    
     8    4   75 1    
     9    5    6 1    
    10    5   35 1    
    11    5   76 1    
    12    6    7 1    
    13    6   77 1    
    14    6   78 1    
    15    7    8 1    
    16    8    9 1    
    17    8   79 1    
    18    8   80 1    
    19    9   10 ar   
    20    9   14 ar   
    21   10   11 ar   
    22   10   81 1    
    23   11   12 ar   
    24   11   71 1    
    25   12   13 ar   
    26   12   82 1    
    27   13   14 ar   
    28   13   15 1    
    29   14   83 1    
    30   15   16 1    
    31   15   84 1    
    32   15   85 1    
    33   16   17 1    
    34   17   18 1    
    35   17   86 1    
    36   17   87 1    
    37   18   19 1    
    38   18   37 1    
    39   18   88 1    
    40   19   20 am   BACKBONE|DICT|INTERRES
    41   19   89 1    
    42   20   21 2    
    43   20   22 1    
    44   22   23 1    
    45   22   24 1    
    46   22   90 1    
    47   23   91 1    
    48   23   92 1    
    49   23   93 1    
    50   24   25 am   BACKBONE|DICT|INTERRES
    51   24   94 1    
    52   25   26 2    
    53   25   27 1    
    54   27   28 1    
    55   27   29 1    
    56   27   95 1    
    57   28   96 1    
    58   28   97 1    
    59   28   98 1    
    60   29   30 am   BACKBONE|DICT|INTERRES
    61   29   99 1    
    62   30   31 2    
    63   30   32 1    
    64   32   33 1    
    65   32   34 1    
    66   32  100 1    
    67   33  101 1    
    68   33  102 1    
    69   33  103 1    
    70   34   35 am   BACKBONE|DICT|INTERRES
    71   34  104 1    
    72   35   36 2    
    73   37   38 2    
    74   37   39 am   BACKBONE|DICT|INTERRES
    75   39   40 1    
    76   39  105 1    
    77   40   41 1    
    78   40   42 1    
    79   40  106 1    
    80   41  107 1    
    81   41  108 1    
    82   41  109 1    
    83   42   43 2    
    84   42   44 am   BACKBONE|DICT|INTERRES
    85   44   45 1    
    86   44  110 1    
    87   45   46 1    
    88   45   47 1    
    89   45  111 1    
    90   46  112 1    
    91   46  113 1    
    92   46  114 1    
    93   47   48 2    
    94   47   49 am   BACKBONE|DICT|INTERRES
    95   49   50 1    
    96   49  115 1    
    97   50   51 1    
    98   50   52 1    
    99   50  116 1    
   100   51  117 1    
   101   51  118 1    
   102   51  119 1    
   103   52   53 2    
   104   52   54 am   BACKBONE|DICT|INTERRES
   105   54   55 1    
   106   54  120 1    
   107   55   56 1    
   108   55   57 1    
   109   55  121 1    
   110   56  122 1    
   111   56  123 1    
   112   56  124 1    
   113   57   58 2    
   114   57   59 am   BACKBONE|DICT|INTERRES
   115   59   60 1    
   116   59  125 1    
   117   60   61 1    
   118   60   62 1    
   119   60  126 1    
   120   61  127 1    
   121   61  128 1    
   122   61  129 1    
   123   62   63 2    
   124   62   64 am   BACKBONE|DICT|INTERRES
   125   64   65 1    
   126   64  130 1    
   127   65   66 1    
   128   65   69 1    
   129   65  131 1    
   130   66   67 am   BACKBONE|DICT|INTERRES
   131   66   68 2    
   132   67  132 1    
   133   67  133 1    
   134   69   70 1    
   135   69  134 1    
   136   69  135 1    
   137   70   71 1    
   138   71  136 1    
   139   71  137 1    
@<TRIPOS>SUBSTRUCTURE
     1 UNK         1 GROUP             0       ****    0 ROOT    
