@<TRIPOS>MOLECULE
3R137
137   139    1
SMALL
USER_CHARGES


@<TRIPOS>ATOM
      1 CA         24.9918   -1.3606   -0.8585 C.3       0 UNK        -0.2020 
      2 C          25.8201   -2.1610   -1.8509 C.2       0 UNK         0.4855 
      3 O          26.0128   -1.7233   -2.9865 O.2       0 UNK        -0.5197 
      4 N          26.3231   -3.3311   -1.4425 N.am      1 UNK        -0.4892 
      5 CA         27.1098   -4.2195   -2.2996 C.3       1 UNK         0.0835 
      6 C6         27.7690   -5.3571   -1.4845 C.3       12 UNK        -0.0855 
      7 S7         29.1703   -6.1157   -2.3726 S.3       12 UNK        -0.2931 
      8 C8         30.5942   -5.2716   -1.6110 C.3       12 UNK         0.0378 
      9 C9         30.7035   -3.8161   -2.0468 C.ar      12 UNK        -0.0802 
     10 C10        31.1648   -3.5056   -3.3295 C.ar      12 UNK        -0.0944 
     11 C11        31.3130   -2.1745   -3.7301 C.ar      12 UNK        -0.0787 
     12 C12        31.0075   -1.1504   -2.8286 C.ar      12 UNK        -0.0862 
     13 C13        30.5279   -1.4441   -1.5482 C.ar      12 UNK        -0.0733 
     14 C14        30.3743   -2.7810   -1.1646 C.ar      12 UNK        -0.0832 
     15 C15        30.2137   -0.3221   -0.5652 C.3       12 UNK         0.0240 
     16 S16        28.5545    0.3899   -0.8225 S.3       12 UNK        -0.2522 
     17 C17        28.8374    1.5182   -2.2295 C.3       12 UNK        -0.0967 
     18 CA         28.3129    0.9098   -3.5567 C.3       5 UNK         0.0660 
     19 N          26.8542    0.7997   -3.6026 N.am      5 UNK        -0.4015 
     20 C          25.9454    1.7619   -3.8027 C.2       4 UNK         0.4946 
     21 O          26.2177    2.9386   -4.0470 O.2       4 UNK        -0.5353 
     22 CA         24.4858    1.2895   -3.7870 C.3       4 UNK         0.0277 
     23 CB         23.4593    2.4292   -3.9362 C.3       4 UNK        -0.1981 
     24 N          24.3189    0.3054   -4.8533 N.am      4 UNK        -0.4209 
     25 C          23.5464   -0.7846   -4.7983 C.2       3 UNK         0.4942 
     26 O          22.7979   -1.0582   -3.8598 O.2       3 UNK        -0.5208 
     27 CA         23.6528   -1.7492   -5.9843 C.3       3 UNK         0.0250 
     28 CB         23.9060   -1.0356   -7.3336 C.3       3 UNK        -0.1990 
     29 N          24.7002   -2.7340   -5.7041 N.am      3 UNK        -0.4232 
     30 C          24.7914   -3.9325   -6.2996 C.2       2 UNK         0.4993 
     31 O          23.9875   -4.3291   -7.1447 O.2       2 UNK        -0.5286 
     32 CA         25.9675   -4.8559   -5.9234 C.3       2 UNK         0.0209 
     33 CB         26.9887   -4.9335   -7.0708 C.3       2 UNK        -0.1931 
     34 N          26.6686   -4.4661   -4.6989 N.am      2 UNK        -0.4546 
     35 C          26.2441   -4.7510   -3.4620 C.2       1 UNK         0.5154 
     36 O          25.2130   -5.3823   -3.2167 O.2       1 UNK        -0.5181 
     37 C          28.8736    1.5848   -4.8211 C.2       5 UNK         0.5014 
     38 O          28.9781    0.9195   -5.8500 O.2       5 UNK        -0.5248 
     39 N          29.1902    2.8855   -4.7443 N.am      6 UNK        -0.4434 
     40 CA         29.7056    3.7017   -5.8496 C.3       6 UNK         0.0363 
     41 CB         30.0824    5.0918   -5.3136 C.3       6 UNK        -0.1936 
     42 C          28.7554    3.8245   -7.0582 C.2       6 UNK         0.5081 
     43 O          29.2085    4.2017   -8.1387 O.2       6 UNK        -0.5248 
     44 N          27.4672    3.5004   -6.8725 N.am      7 UNK        -0.4718 
     45 CA         26.4887    3.3731   -7.9543 C.3       7 UNK         0.0273 
     46 CB         25.0737    3.3466   -7.3585 C.3       7 UNK        -0.1935 
     47 C          26.7144    2.1336   -8.8431 C.2       7 UNK         0.5018 
     48 O          26.2416    2.1325   -9.9806 O.2       7 UNK        -0.5186 
     49 N          27.4075    1.1048   -8.3302 N.am      8 UNK        -0.4240 
     50 CA         27.7907   -0.0797   -9.0968 C.3       8 UNK         0.0235 
     51 CB         27.9490   -1.2829   -8.1519 C.3       8 UNK        -0.2000 
     52 C          29.1128    0.1894   -9.8239 C.2       8 UNK         0.4941 
     53 O          30.0251    0.7706   -9.2320 O.2       8 UNK        -0.5273 
     54 N          29.2296   -0.3031  -11.0646 N.am      9 UNK        -0.4262 
     55 CA         30.4083   -0.1483  -11.9314 C.3       9 UNK         0.0264 
     56 CB         30.1044   -0.7640  -13.3073 C.3       9 UNK        -0.1955 
     57 C          31.7186   -0.7284  -11.3607 C.2       9 UNK         0.5031 
     58 O          32.7964   -0.3376  -11.8109 O.2       9 UNK        -0.5390 
     59 N          31.6055   -1.6327  -10.3787 N.am      10 UNK        -0.4204 
     60 CA         32.7154   -2.1966   -9.6135 C.3       10 UNK         0.0237 
     61 CB         32.1943   -3.3730   -8.7710 C.3       10 UNK        -0.1985 
     62 C          33.4397   -1.1740   -8.7166 C.2       10 UNK         0.4970 
     63 O          34.6351   -1.3555   -8.4801 O.2       10 UNK        -0.4914 
     64 N          32.7268   -0.1455   -8.2307 N.am      11 UNK        -0.4285 
     65 CA         33.2669    0.8899   -7.3292 C.3       11 UNK         0.1007 
     66 C          33.0085    2.3407   -7.8196 C.2       11 UNK         0.5703 
     67 N          32.0591    2.5958   -8.7093 N.am      11 UNK        -0.7361 
     68 O          33.7016    3.2603   -7.3905 O.2       11 UNK        -0.4986 
     69 C69        32.7852    0.7087   -5.8630 C.3       12 UNK        -0.0947 
     70 S70        33.3306   -0.8714   -5.1265 S.3       12 UNK        -0.2240 
     71 C71        31.7928   -1.8483   -5.1383 C.3       12 UNK         0.0194 
     72 H72        24.9072   -1.8667    0.1037 H         1 UNK         0.0906 
     73 H73        25.4494   -0.3852   -0.6901 H         1 UNK         0.0906 
     74 H74        23.9865   -1.2055   -1.2514 H         1 UNK         0.0906 
     75 H75        26.1143   -3.6721   -0.5150 H         1 UNK         0.3140 
     76 H76        27.9090   -3.6035   -2.7194 H         1 UNK         0.1085 
     77 H77        27.0440   -6.1339   -1.2316 H         1 UNK         0.0836 
     78 H78        28.1335   -4.9744   -0.5298 H         1 UNK         0.0836 
     79 H79        30.5328   -5.3523   -0.5243 H         1 UNK         0.0731 
     80 H80        31.5055   -5.7977   -1.8996 H         1 UNK         0.0731 
     81 H81        31.4103   -4.3063   -4.0141 H         1 UNK         0.1312 
     82 H82        31.1453   -0.1222   -3.1307 H         1 UNK         0.1406 
     83 H83        30.0149   -3.0151   -0.1715 H         1 UNK         0.1631 
     84 H84        30.9722    0.4595   -0.6291 H         1 UNK         0.0717 
     85 H85        30.2666   -0.7013    0.4564 H         1 UNK         0.0717 
     86 H86        28.3377    2.4639   -2.0122 H         1 UNK         0.0934 
     87 H87        29.9030    1.7465   -2.2885 H         1 UNK         0.0934 
     88 H88        28.6615   -0.1213   -3.6124 H         1 UNK         0.0739 
     89 H89        26.5058   -0.1458   -3.4329 H         1 UNK         0.3093 
     90 H90        24.3220    0.8113   -2.8192 H         1 UNK         0.0818 
     91 H91        22.4392    2.0525   -3.8605 H         1 UNK         0.0819 
     92 H92        23.5886    3.1737   -3.1496 H         1 UNK         0.0819 
     93 H93        23.5536    2.9451   -4.8906 H         1 UNK         0.0819 
     94 H94        24.9204    0.4214   -5.6557 H         1 UNK         0.3041 
     95 H95        22.6938   -2.2681   -6.0496 H         1 UNK         0.0784 
     96 H96        23.8295   -1.7327   -8.1681 H         1 UNK         0.0793 
     97 H97        23.1658   -0.2532   -7.5070 H         1 UNK         0.0793 
     98 H98        24.8914   -0.5740   -7.3850 H         1 UNK         0.0793 
     99 H99        25.3420   -2.5009   -4.9533 H         1 UNK         0.3024 
    100 H100       25.5471   -5.8546   -5.7819 H         1 UNK         0.1171 
    101 H101       27.4932   -3.9811   -7.2266 H         1 UNK         0.0786 
    102 H102       26.5067   -5.2071   -8.0106 H         1 UNK         0.0786 
    103 H103       27.7511   -5.6862   -6.8698 H         1 UNK         0.0786 
    104 H104       27.5203   -3.9356   -4.8136 H         1 UNK         0.2977 
    105 H105       28.9989    3.3734   -3.8813 H         1 UNK         0.3127 
    106 H106       30.6140    3.2182   -6.2120 H         1 UNK         0.0770 
    107 H107       29.2147    5.6183   -4.9141 H         1 UNK         0.0814 
    108 H108       30.5050    5.7130   -6.1046 H         1 UNK         0.0814 
    109 H109       30.8312    5.0250   -4.5242 H         1 UNK         0.0814 
    110 H110       27.1595    3.2540   -5.9376 H         1 UNK         0.2983 
    111 H111       26.5733    4.2544   -8.5940 H         1 UNK         0.0947 
    112 H112       24.3190    3.3525   -8.1460 H         1 UNK         0.0806 
    113 H113       24.8898    4.2152   -6.7257 H         1 UNK         0.0806 
    114 H114       24.9108    2.4510   -6.7609 H         1 UNK         0.0806 
    115 H115       27.8619    1.2096   -7.4269 H         1 UNK         0.3000 
    116 H116       27.0103   -0.3120   -9.8249 H         1 UNK         0.0850 
    117 H117       28.7713   -1.1441   -7.4490 H         1 UNK         0.0810 
    118 H118       27.0446   -1.4630   -7.5726 H         1 UNK         0.0810 
    119 H119       28.1577   -2.1912   -8.7180 H         1 UNK         0.0810 
    120 H120       28.4402   -0.7873  -11.4685 H         1 UNK         0.3040 
    121 H121       30.5713    0.9231  -12.0653 H         1 UNK         0.0766 
    122 H122       29.2429   -0.2874  -13.7754 H         1 UNK         0.0812 
    123 H123       29.9013   -1.8332  -13.2354 H         1 UNK         0.0812 
    124 H124       30.9485   -0.6384  -13.9872 H         1 UNK         0.0812 
    125 H125       30.6750   -1.8964  -10.0920 H         1 UNK         0.3205 
    126 H126       33.4486   -2.5834  -10.3245 H         1 UNK         0.0754 
    127 H127       31.7932   -4.1657   -9.4029 H         1 UNK         0.0769 
    128 H128       31.4068   -3.0605   -8.0843 H         1 UNK         0.0769 
    129 H129       32.9944   -3.8117   -8.1728 H         1 UNK         0.0769 
    130 H130       31.7593   -0.0271   -8.5102 H         1 UNK         0.2981 
    131 H131       34.3553    0.8091   -7.3152 H         1 UNK         0.0541 
    132 H132       31.3889    1.8832   -8.9908 H         1 UNK         0.3459 
    133 H133       31.9106    3.5479   -9.0019 H         1 UNK         0.3459 
    134 H134       31.7008    0.8019   -5.8025 H         1 UNK         0.0612 
    135 H135       33.1862    1.5036   -5.2311 H         1 UNK         0.0612 
    136 H136       31.9859   -2.7652   -5.6958 H         1 UNK         0.0624 
    137 H137       30.9999   -1.3294   -5.6781 H         1 UNK         0.0624 
@<TRIPOS>BOND
     1    1    2 1    
     2    1   72 1    
     3    1   73 1    
     4    1   74 1    
     5    2    3 2    
     6    2    4 am   BACKBONE|DICT|INTERRES
     7    4    5 1    
     8    4   75 1    
     9    5    6 1    
    10    5   35 1    
    11    5   76 1    
    12    6    7 1    
    13    6   77 1    
    14    6   78 1    
    15    7    8 1    
    16    8    9 1    
    17    8   79 1    
    18    8   80 1    
    19    9   10 ar   
    20    9   14 ar   
    21   10   11 ar   
    22   10   81 1    
    23   11   12 ar   
    24   11   71 1    
    25   12   13 ar   
    26   12   82 1    
    27   13   14 ar   
    28   13   15 1    
    29   14   83 1    
    30   15   16 1    
    31   15   84 1    
    32   15   85 1    
    33   16   17 1    
    34   17   18 1    
    35   17   86 1    
    36   17   87 1    
    37   18   19 1    
    38   18   37 1    
    39   18   88 1    
    40   19   20 am   BACKBONE|DICT|INTERRES
    41   19   89 1    
    42   20   21 2    
    43   20   22 1    
    44   22   23 1    
    45   22   24 1    
    46   22   90 1    
    47   23   91 1    
    48   23   92 1    
    49   23   93 1    
    50   24   25 am   BACKBONE|DICT|INTERRES
    51   24   94 1    
    52   25   26 2    
    53   25   27 1    
    54   27   28 1    
    55   27   29 1    
    56   27   95 1    
    57   28   96 1    
    58   28   97 1    
    59   28   98 1    
    60   29   30 am   BACKBONE|DICT|INTERRES
    61   29   99 1    
    62   30   31 2    
    63   30   32 1    
    64   32   33 1    
    65   32   34 1    
    66   32  100 1    
    67   33  101 1    
    68   33  102 1    
    69   33  103 1    
    70   34   35 am   BACKBONE|DICT|INTERRES
    71   34  104 1    
    72   35   36 2    
    73   37   38 2    
    74   37   39 am   BACKBONE|DICT|INTERRES
    75   39   40 1    
    76   39  105 1    
    77   40   41 1    
    78   40   42 1    
    79   40  106 1    
    80   41  107 1    
    81   41  108 1    
    82   41  109 1    
    83   42   43 2    
    84   42   44 am   BACKBONE|DICT|INTERRES
    85   44   45 1    
    86   44  110 1    
    87   45   46 1    
    88   45   47 1    
    89   45  111 1    
    90   46  112 1    
    91   46  113 1    
    92   46  114 1    
    93   47   48 2    
    94   47   49 am   BACKBONE|DICT|INTERRES
    95   49   50 1    
    96   49  115 1    
    97   50   51 1    
    98   50   52 1    
    99   50  116 1    
   100   51  117 1    
   101   51  118 1    
   102   51  119 1    
   103   52   53 2    
   104   52   54 am   BACKBONE|DICT|INTERRES
   105   54   55 1    
   106   54  120 1    
   107   55   56 1    
   108   55   57 1    
   109   55  121 1    
   110   56  122 1    
   111   56  123 1    
   112   56  124 1    
   113   57   58 2    
   114   57   59 am   BACKBONE|DICT|INTERRES
   115   59   60 1    
   116   59  125 1    
   117   60   61 1    
   118   60   62 1    
   119   60  126 1    
   120   61  127 1    
   121   61  128 1    
   122   61  129 1    
   123   62   63 2    
   124   62   64 am   BACKBONE|DICT|INTERRES
   125   64   65 1    
   126   64  130 1    
   127   65   66 1    
   128   65   69 1    
   129   65  131 1    
   130   66   67 am   BACKBONE|DICT|INTERRES
   131   66   68 2    
   132   67  132 1    
   133   67  133 1    
   134   69   70 1    
   135   69  134 1    
   136   69  135 1    
   137   70   71 1    
   138   71  136 1    
   139   71  137 1    
@<TRIPOS>SUBSTRUCTURE
     1 UNK         1 GROUP             0       ****    0 ROOT    
