@<TRIPOS>MOLECULE
3R137
137   139    1
SMALL
USER_CHARGES


@<TRIPOS>ATOM
      1 CA         32.6311   -6.5718   -5.4347 C.3       0 UNK        -0.2020 
      2 C          31.4938   -6.6598   -4.4283 C.2       0 UNK         0.4855 
      3 O          31.0714   -7.7609   -4.0746 O.2       0 UNK        -0.5197 
      4 N          30.9989   -5.5068   -3.9667 N.am      1 UNK        -0.4892 
      5 CA         29.8373   -5.3854   -3.0847 C.3       1 UNK         0.0835 
      6 C6         29.9483   -4.1313   -2.1824 C.3       12 UNK        -0.0855 
      7 S7         28.8231   -4.2013   -0.7490 S.3       12 UNK        -0.2931 
      8 C8         29.6209   -3.0270    0.3888 C.3       12 UNK         0.0378 
      9 C9         29.5563   -1.5979   -0.1310 C.ar      12 UNK        -0.0802 
     10 C10        30.6837   -1.0041   -0.7080 C.ar      12 UNK        -0.0944 
     11 C11        30.6339    0.3182   -1.1588 C.ar      12 UNK        -0.0787 
     12 C12        29.4521    1.0491   -1.0194 C.ar      12 UNK        -0.0862 
     13 C13        28.3111    0.4597   -0.4685 C.ar      12 UNK        -0.0733 
     14 C14        28.3706   -0.8637   -0.0210 C.ar      12 UNK        -0.0832 
     15 C15        27.0204    1.2566   -0.3425 C.3       12 UNK         0.0240 
     16 S16        25.8800    0.9442   -1.7295 S.3       12 UNK        -0.2522 
     17 C17        26.7326    1.7476   -3.1315 C.3       12 UNK        -0.0967 
     18 CA         27.0645    0.7365   -4.2696 C.3       5 UNK         0.0660 
     19 N          25.8733    0.1073   -4.8514 N.am      5 UNK        -0.4015 
     20 C          24.9041    0.7370   -5.5360 C.2       4 UNK         0.4946 
     21 O          24.8800    1.9574   -5.7038 O.2       4 UNK        -0.5353 
     22 CA         23.7789   -0.1083   -6.1665 C.3       4 UNK         0.0277 
     23 CB         23.7241    0.1020   -7.6900 C.3       4 UNK        -0.1981 
     24 N          23.9011   -1.5406   -5.8875 N.am      4 UNK        -0.4209 
     25 C          23.4611   -2.1396   -4.7729 C.2       3 UNK         0.4942 
     26 O          22.8320   -1.5612   -3.8865 O.2       3 UNK        -0.5208 
     27 CA         23.7901   -3.6350   -4.6068 C.3       3 UNK         0.0250 
     28 CB         22.5971   -4.4978   -5.0503 C.3       3 UNK        -0.1990 
     29 N          24.9995   -4.0843   -5.3107 N.am      3 UNK        -0.4232 
     30 C          26.2393   -3.6309   -5.0773 C.2       2 UNK         0.4993 
     31 O          26.4950   -2.6938   -4.3180 O.2       2 UNK        -0.5286 
     32 CA         27.3818   -4.3104   -5.8516 C.3       2 UNK         0.0209 
     33 CB         27.8169   -3.4359   -7.0382 C.3       2 UNK        -0.1931 
     34 N          28.5403   -4.5539   -4.9914 N.am      2 UNK        -0.4546 
     35 C          28.5462   -5.3685   -3.9250 C.2       1 UNK         0.5154 
     36 O          27.6043   -6.1021   -3.6181 O.2       1 UNK        -0.5181 
     37 C          27.9543    1.3001   -5.4022 C.2       5 UNK         0.5014 
     38 O          28.1271    0.6254   -6.4200 O.2       5 UNK        -0.5248 
     39 N          28.4938    2.5171   -5.2373 N.am      6 UNK        -0.4434 
     40 CA         29.3717    3.1806   -6.2073 C.3       6 UNK         0.0363 
     41 CB         29.9560    4.4536   -5.5773 C.3       6 UNK        -0.1936 
     42 C          28.7046    3.5024   -7.5584 C.2       6 UNK         0.5081 
     43 O          29.4133    3.6405   -8.5580 O.2       6 UNK        -0.5248 
     44 N          27.3646    3.5823   -7.5821 N.am      7 UNK        -0.4718 
     45 CA         26.5522    3.8274   -8.7793 C.3       7 UNK         0.0273 
     46 CB         25.1142    4.1756   -8.3641 C.3       7 UNK        -0.1935 
     47 C          26.5666    2.6724   -9.7998 C.2       7 UNK         0.5018 
     48 O          26.1273    2.8745  -10.9316 O.2       7 UNK        -0.5186 
     49 N          27.1176    1.5091   -9.4214 N.am      8 UNK        -0.4240 
     50 CA         27.4246    0.3888  -10.3173 C.3       8 UNK         0.0235 
     51 CB         27.5280   -0.8972   -9.4783 C.3       8 UNK        -0.2000 
     52 C          28.7038    0.6039  -11.1614 C.2       8 UNK         0.4941 
     53 O          29.1627   -0.3521  -11.7878 O.2       8 UNK        -0.5273 
     54 N          29.2508    1.8318  -11.1609 N.am      9 UNK        -0.4262 
     55 CA         30.5433    2.2607  -11.7068 C.3       9 UNK         0.0264 
     56 CB         30.6876    1.9427  -13.2116 C.3       9 UNK        -0.1955 
     57 C          31.6799    1.7022  -10.8369 C.2       9 UNK         0.5031 
     58 O          32.4618    0.8669  -11.2962 O.2       9 UNK        -0.5390 
     59 N          31.7007    2.1785   -9.5826 N.am      10 UNK        -0.4204 
     60 CA         32.4650    1.7028   -8.4230 C.3       10 UNK         0.0237 
     61 CB         33.9586    1.4655   -8.7328 C.3       10 UNK        -0.1985 
     62 C          31.7959    0.4765   -7.7795 C.2       10 UNK         0.4970 
     63 O          30.9467   -0.1711   -8.3923 O.2       10 UNK        -0.4914 
     64 N          32.1684    0.2136   -6.5227 N.am      11 UNK        -0.4285 
     65 CA         31.5244   -0.7753   -5.6418 C.3       11 UNK         0.1007 
     66 C          31.7160   -2.2658   -6.0422 C.2       11 UNK         0.5703 
     67 N          32.5865   -2.6023   -6.9854 N.am      11 UNK        -0.7361 
     68 O          31.0590   -3.1361   -5.4768 O.2       11 UNK        -0.4986 
     69 C69        31.9148   -0.5544   -4.1571 C.3       12 UNK        -0.0947 
     70 S70        31.6405    1.1585   -3.5926 S.3       12 UNK        -0.2240 
     71 C71        31.8512    0.9696   -1.7956 C.3       12 UNK         0.0194 
     72 H72        32.3176   -6.9865   -6.3923 H         1 UNK         0.0906 
     73 H73        32.9509   -5.5427   -5.5977 H         1 UNK         0.0906 
     74 H74        33.4908   -7.1405   -5.0811 H         1 UNK         0.0906 
     75 H75        31.3220   -4.6333   -4.3757 H         1 UNK         0.3140 
     76 H76        29.8003   -6.2655   -2.4381 H         1 UNK         0.1085 
     77 H77        30.9674   -4.0489   -1.8011 H         1 UNK         0.0836 
     78 H78        29.7623   -3.2124   -2.7432 H         1 UNK         0.0836 
     79 H79        29.1220   -3.0820    1.3575 H         1 UNK         0.0731 
     80 H80        30.6542   -3.3314    0.5636 H         1 UNK         0.0731 
     81 H81        31.5999   -1.5704   -0.8053 H         1 UNK         0.1312 
     82 H82        29.4246    2.0767   -1.3538 H         1 UNK         0.1406 
     83 H83        27.4928   -1.3247    0.4117 H         1 UNK         0.1631 
     84 H84        27.2310    2.3253   -0.2764 H         1 UNK         0.0717 
     85 H85        26.5181    0.9910    0.5889 H         1 UNK         0.0717 
     86 H86        26.0984    2.5576   -3.4947 H         1 UNK         0.0934 
     87 H87        27.6353    2.2264   -2.7573 H         1 UNK         0.0934 
     88 H88        27.6465   -0.0748   -3.8282 H         1 UNK         0.0739 
     89 H89        25.8487   -0.9040   -4.7618 H         1 UNK         0.3093 
     90 H90        22.8377    0.2535   -5.7469 H         1 UNK         0.0818 
     91 H91        22.9302   -0.4895   -8.1462 H         1 UNK         0.0819 
     92 H92        23.5240    1.1460   -7.9331 H         1 UNK         0.0819 
     93 H93        24.6638   -0.1660   -8.1703 H         1 UNK         0.0819 
     94 H94        24.4038   -2.0973   -6.5631 H         1 UNK         0.3041 
     95 H95        23.9559   -3.8064   -3.5409 H         1 UNK         0.0784 
     96 H96        21.6870   -4.2067   -4.5235 H         1 UNK         0.0793 
     97 H97        22.4008   -4.3977   -6.1186 H         1 UNK         0.0793 
     98 H98        22.7675   -5.5531   -4.8360 H         1 UNK         0.0793 
     99 H99        24.8762   -4.8451   -5.9640 H         1 UNK         0.3024 
    100 H100       27.0380   -5.2759   -6.2292 H         1 UNK         0.1171 
    101 H101       26.9913   -3.2869   -7.7345 H         1 UNK         0.0786 
    102 H102       28.6318   -3.8970   -7.5967 H         1 UNK         0.0786 
    103 H103       28.1535   -2.4501   -6.7111 H         1 UNK         0.0786 
    104 H104       29.3679   -3.9942   -5.1737 H         1 UNK         0.2977 
    105 H105       28.2982    3.0267   -4.3889 H         1 UNK         0.3127 
    106 H106       30.1967    2.4981   -6.4121 H         1 UNK         0.0770 
    107 H107       29.1764    5.1705   -5.3167 H         1 UNK         0.0814 
    108 H108       30.6393    4.9517   -6.2667 H         1 UNK         0.0814 
    109 H109       30.5221    4.2253   -4.6739 H         1 UNK         0.0814 
    110 H110       26.8580    3.4126   -6.7232 H         1 UNK         0.2983 
    111 H111       26.9737    4.6979   -9.2868 H         1 UNK         0.0947 
    112 H112       24.5147    4.4541   -9.2319 H         1 UNK         0.0806 
    113 H113       25.0907    5.0178   -7.6725 H         1 UNK         0.0806 
    114 H114       24.6162    3.3334   -7.8860 H         1 UNK         0.0806 
    115 H115       27.4580    1.4239   -8.4700 H         1 UNK         0.3000 
    116 H116       26.5967    0.2685  -11.0192 H         1 UNK         0.0850 
    117 H117       27.6845   -1.7721  -10.1103 H         1 UNK         0.0810 
    118 H118       26.6218   -1.0767   -8.9034 H         1 UNK         0.0810 
    119 H119       28.3622   -0.8495   -8.7775 H         1 UNK         0.0810 
    120 H120       28.7923    2.5230  -10.5829 H         1 UNK         0.3040 
    121 H121       30.5719    3.3471  -11.6059 H         1 UNK         0.0766 
    122 H122       29.8497    2.3408  -13.7835 H         1 UNK         0.0812 
    123 H123       30.7486    0.8719  -13.4058 H         1 UNK         0.0812 
    124 H124       31.5976    2.3906  -13.6121 H         1 UNK         0.0812 
    125 H125       30.9509    2.8216   -9.3346 H         1 UNK         0.3205 
    126 H126       32.4060    2.5145   -7.6961 H         1 UNK         0.0754 
    127 H127       34.5325    1.3358   -7.8147 H         1 UNK         0.0769 
    128 H128       34.3932    2.3104   -9.2672 H         1 UNK         0.0769 
    129 H129       34.1147    0.5698   -9.3346 H         1 UNK         0.0769 
    130 H130       32.8789    0.7831   -6.0877 H         1 UNK         0.2981 
    131 H131       30.4502   -0.5999   -5.7173 H         1 UNK         0.0541 
    132 H132       32.6896   -3.5696   -7.2434 H         1 UNK         0.3459 
    133 H133       33.1141   -1.8922   -7.4658 H         1 UNK         0.3459 
    134 H134       32.9651   -0.8034   -3.9955 H         1 UNK         0.0612 
    135 H135       31.3357   -1.2214   -3.5163 H         1 UNK         0.0612 
    136 H136       32.0046    1.9553   -1.3541 H         1 UNK         0.0624 
    137 H137       32.7572    0.3968   -1.5913 H         1 UNK         0.0624 
@<TRIPOS>BOND
     1    1    2 1    
     2    1   72 1    
     3    1   73 1    
     4    1   74 1    
     5    2    3 2    
     6    2    4 am   BACKBONE|DICT|INTERRES
     7    4    5 1    
     8    4   75 1    
     9    5    6 1    
    10    5   35 1    
    11    5   76 1    
    12    6    7 1    
    13    6   77 1    
    14    6   78 1    
    15    7    8 1    
    16    8    9 1    
    17    8   79 1    
    18    8   80 1    
    19    9   10 ar   
    20    9   14 ar   
    21   10   11 ar   
    22   10   81 1    
    23   11   12 ar   
    24   11   71 1    
    25   12   13 ar   
    26   12   82 1    
    27   13   14 ar   
    28   13   15 1    
    29   14   83 1    
    30   15   16 1    
    31   15   84 1    
    32   15   85 1    
    33   16   17 1    
    34   17   18 1    
    35   17   86 1    
    36   17   87 1    
    37   18   19 1    
    38   18   37 1    
    39   18   88 1    
    40   19   20 am   BACKBONE|DICT|INTERRES
    41   19   89 1    
    42   20   21 2    
    43   20   22 1    
    44   22   23 1    
    45   22   24 1    
    46   22   90 1    
    47   23   91 1    
    48   23   92 1    
    49   23   93 1    
    50   24   25 am   BACKBONE|DICT|INTERRES
    51   24   94 1    
    52   25   26 2    
    53   25   27 1    
    54   27   28 1    
    55   27   29 1    
    56   27   95 1    
    57   28   96 1    
    58   28   97 1    
    59   28   98 1    
    60   29   30 am   BACKBONE|DICT|INTERRES
    61   29   99 1    
    62   30   31 2    
    63   30   32 1    
    64   32   33 1    
    65   32   34 1    
    66   32  100 1    
    67   33  101 1    
    68   33  102 1    
    69   33  103 1    
    70   34   35 am   BACKBONE|DICT|INTERRES
    71   34  104 1    
    72   35   36 2    
    73   37   38 2    
    74   37   39 am   BACKBONE|DICT|INTERRES
    75   39   40 1    
    76   39  105 1    
    77   40   41 1    
    78   40   42 1    
    79   40  106 1    
    80   41  107 1    
    81   41  108 1    
    82   41  109 1    
    83   42   43 2    
    84   42   44 am   BACKBONE|DICT|INTERRES
    85   44   45 1    
    86   44  110 1    
    87   45   46 1    
    88   45   47 1    
    89   45  111 1    
    90   46  112 1    
    91   46  113 1    
    92   46  114 1    
    93   47   48 2    
    94   47   49 am   BACKBONE|DICT|INTERRES
    95   49   50 1    
    96   49  115 1    
    97   50   51 1    
    98   50   52 1    
    99   50  116 1    
   100   51  117 1    
   101   51  118 1    
   102   51  119 1    
   103   52   53 2    
   104   52   54 am   BACKBONE|DICT|INTERRES
   105   54   55 1    
   106   54  120 1    
   107   55   56 1    
   108   55   57 1    
   109   55  121 1    
   110   56  122 1    
   111   56  123 1    
   112   56  124 1    
   113   57   58 2    
   114   57   59 am   BACKBONE|DICT|INTERRES
   115   59   60 1    
   116   59  125 1    
   117   60   61 1    
   118   60   62 1    
   119   60  126 1    
   120   61  127 1    
   121   61  128 1    
   122   61  129 1    
   123   62   63 2    
   124   62   64 am   BACKBONE|DICT|INTERRES
   125   64   65 1    
   126   64  130 1    
   127   65   66 1    
   128   65   69 1    
   129   65  131 1    
   130   66   67 am   BACKBONE|DICT|INTERRES
   131   66   68 2    
   132   67  132 1    
   133   67  133 1    
   134   69   70 1    
   135   69  134 1    
   136   69  135 1    
   137   70   71 1    
   138   71  136 1    
   139   71  137 1    
@<TRIPOS>SUBSTRUCTURE
     1 UNK         1 GROUP             0       ****    0 ROOT    
