@<TRIPOS>MOLECULE
3R137
137   139    1
SMALL
USER_CHARGES


@<TRIPOS>ATOM
      1 CA         27.8775   -1.5960    2.5449 C.3       0 UNK        -0.2020 
      2 C          27.7167   -1.7117    1.0375 C.2       0 UNK         0.4855 
      3 O          27.6799   -0.6974    0.3428 O.2       0 UNK        -0.5197 
      4 N          27.5986   -2.9393    0.5180 N.am      1 UNK        -0.4892 
      5 CA         27.5061   -3.2711   -0.9130 C.3       1 UNK         0.0835 
      6 C6         28.0429   -4.6970   -1.2029 C.3       12 UNK        -0.0855 
      7 S7         29.7558   -4.9442   -0.6136 S.3       12 UNK        -0.2931 
      8 C8         30.7355   -4.8091   -2.1536 C.3       12 UNK         0.0378 
      9 C9         31.1183   -3.3949   -2.6061 C.ar      12 UNK        -0.0802 
     10 C10        31.8520   -3.2654   -3.7898 C.ar      12 UNK        -0.0944 
     11 C11        32.2845   -2.0148   -4.2416 C.ar      12 UNK        -0.0787 
     12 C12        31.9460   -0.8711   -3.5108 C.ar      12 UNK        -0.0862 
     13 C13        31.1906   -0.9739   -2.3392 C.ar      12 UNK        -0.0733 
     14 C14        30.8071   -2.2376   -1.8786 C.ar      12 UNK        -0.0832 
     15 C15        30.8157    0.2749   -1.5483 C.3       12 UNK         0.0240 
     16 S16        29.7823    1.4422   -2.4988 S.3       12 UNK        -0.2522 
     17 C17        28.2918    0.4548   -2.8711 C.3       12 UNK        -0.0967 
     18 CA         28.1383    0.1899   -4.3909 C.3       5 UNK         0.0660 
     19 N          27.4664   -1.0867   -4.6660 N.am      5 UNK        -0.4015 
     20 C          27.4014   -1.6673   -5.8739 C.2       4 UNK         0.4946 
     21 O          27.8613   -1.1681   -6.8972 O.2       4 UNK        -0.5353 
     22 CA         26.6598   -3.0081   -5.9629 C.3       4 UNK         0.0277 
     23 CB         27.4801   -4.1301   -5.3077 C.3       4 UNK        -0.1981 
     24 N          25.3288   -2.9202   -5.3589 N.am      4 UNK        -0.4209 
     25 C          24.3095   -2.2496   -5.9209 C.2       3 UNK         0.4942 
     26 O          24.3619   -1.7442   -7.0423 O.2       3 UNK        -0.5208 
     27 CA         23.0163   -2.0855   -5.1010 C.3       3 UNK         0.0250 
     28 CB         21.9949   -3.1665   -5.4894 C.3       3 UNK        -0.1990 
     29 N          23.2080   -2.1039   -3.6488 N.am      3 UNK        -0.4232 
     30 C          23.9915   -1.2719   -2.9488 C.2       2 UNK         0.4993 
     31 O          24.6712   -0.3777   -3.4558 O.2       2 UNK        -0.5286 
     32 CA         24.0848   -1.5065   -1.4310 C.3       2 UNK         0.0209 
     33 CB         23.0122   -2.4665   -0.8666 C.3       2 UNK        -0.1931 
     34 N          25.4245   -1.9612   -1.0452 N.am      2 UNK        -0.4546 
     35 C          26.0996   -3.0240   -1.5082 C.2       1 UNK         0.5154 
     36 O          25.6643   -3.7737   -2.3852 O.2       1 UNK        -0.5181 
     37 C          27.4627    1.3730   -5.1184 C.2       5 UNK         0.5014 
     38 O          28.1523    2.2926   -5.5610 O.2       5 UNK        -0.5248 
     39 N          26.1338    1.2992   -5.2919 N.am      6 UNK        -0.4434 
     40 CA         25.3182    2.2361   -6.0717 C.3       6 UNK         0.0363 
     41 CB         23.8385    1.8416   -5.9440 C.3       6 UNK        -0.1936 
     42 C          25.7134    2.3576   -7.5588 C.2       6 UNK         0.5081 
     43 O          25.3591    3.3572   -8.1842 O.2       6 UNK        -0.5248 
     44 N          26.4550    1.3778   -8.0993 N.am      7 UNK        -0.4718 
     45 CA         27.0449    1.4280   -9.4411 C.3       7 UNK         0.0273 
     46 CB         27.3215   -0.0040   -9.9242 C.3       7 UNK        -0.1935 
     47 C          28.3191    2.2966   -9.5189 C.2       7 UNK         0.5018 
     48 O          28.8586    2.4585  -10.6157 O.2       7 UNK        -0.5186 
     49 N          28.7804    2.8417   -8.3804 N.am      8 UNK        -0.4240 
     50 CA         29.9136    3.7583   -8.2258 C.3       8 UNK         0.0235 
     51 CB         29.5822    5.1376   -8.8409 C.3       8 UNK        -0.2000 
     52 C          31.2170    3.1294   -8.7440 C.2       8 UNK         0.4941 
     53 O          31.6875    2.1617   -8.1509 O.2       8 UNK        -0.5273 
     54 N          31.7647    3.6539   -9.8480 N.am      9 UNK        -0.4262 
     55 CA         32.9657    3.1362  -10.5097 C.3       9 UNK         0.0264 
     56 CB         33.4049    4.1283  -11.5991 C.3       9 UNK        -0.1955 
     57 C          32.7995    1.7237  -11.1049 C.2       9 UNK         0.5031 
     58 O          33.8071    1.0487  -11.3203 O.2       9 UNK        -0.5390 
     59 N          31.5542    1.2985  -11.3608 N.am      10 UNK        -0.4204 
     60 CA         31.2167   -0.0009  -11.9437 C.3       10 UNK         0.0237 
     61 CB         30.1251    0.2061  -13.0108 C.3       10 UNK        -0.1985 
     62 C          30.8066   -1.0475  -10.8881 C.2       10 UNK         0.4970 
     63 O          30.1854   -2.0447  -11.2585 O.2       10 UNK        -0.4914 
     64 N          31.1443   -0.8315   -9.6067 N.am      11 UNK        -0.4285 
     65 CA         30.8450   -1.7668   -8.5059 C.3       11 UNK         0.1007 
     66 C          31.5720   -3.1434   -8.5633 C.2       11 UNK         0.5703 
     67 N          32.6269   -3.3065   -9.3538 N.am      11 UNK        -0.7361 
     68 O          31.1647   -4.0819   -7.8830 O.2       11 UNK        -0.4986 
     69 C69        30.9793   -1.0953   -7.1143 C.3       12 UNK        -0.0947 
     70 S70        32.6770   -0.6066   -6.6542 S.3       12 UNK        -0.2240 
     71 C71        33.1562   -1.9279   -5.4925 C.3       12 UNK         0.0194 
     72 H72        28.8100   -1.0851    2.7829 H         1 UNK         0.0906 
     73 H73        27.0552   -1.0187    2.9668 H         1 UNK         0.0906 
     74 H74        27.8921   -2.5719    3.0298 H         1 UNK         0.0906 
     75 H75        27.6162   -3.7368    1.1386 H         1 UNK         0.3140 
     76 H76        28.1424   -2.5795   -1.4599 H         1 UNK         0.1085 
     77 H77        28.0009   -4.9293   -2.2667 H         1 UNK         0.0836 
     78 H78        27.4091   -5.4404   -0.7159 H         1 UNK         0.0836 
     79 H79        30.2092   -5.3186   -2.9621 H         1 UNK         0.0731 
     80 H80        31.6591   -5.3686   -1.9985 H         1 UNK         0.0731 
     81 H81        32.1137   -4.1527   -4.3508 H         1 UNK         0.1312 
     82 H82        32.2704    0.1024   -3.8525 H         1 UNK         0.1406 
     83 H83        30.2771   -2.3075   -0.9406 H         1 UNK         0.1631 
     84 H84        31.7295    0.7858   -1.2422 H         1 UNK         0.0717 
     85 H85        30.2898    0.0130   -0.6287 H         1 UNK         0.0717 
     86 H86        28.3728   -0.4853   -2.3292 H         1 UNK         0.0934 
     87 H87        27.4122    0.9503   -2.4542 H         1 UNK         0.0934 
     88 H88        29.1386    0.0893   -4.8194 H         1 UNK         0.0739 
     89 H89        26.9701   -1.5133   -3.8997 H         1 UNK         0.3093 
     90 H90        26.5405   -3.2564   -7.0201 H         1 UNK         0.0818 
     91 H91        27.6977   -3.9142   -4.2635 H         1 UNK         0.0819 
     92 H92        26.9585   -5.0861   -5.3539 H         1 UNK         0.0819 
     93 H93        28.4373   -4.2559   -5.8163 H         1 UNK         0.0819 
     94 H94        25.2116   -3.3085   -4.4288 H         1 UNK         0.3041 
     95 H95        22.5945   -1.1116   -5.3564 H         1 UNK         0.0784 
     96 H96        21.8087   -3.1594   -6.5645 H         1 UNK         0.0793 
     97 H97        22.3446   -4.1656   -5.2259 H         1 UNK         0.0793 
     98 H98        21.0361   -3.0038   -4.9966 H         1 UNK         0.0793 
     99 H99        22.7230   -2.8294   -3.1408 H         1 UNK         0.3024 
    100 H100       23.9357   -0.5298   -0.9673 H         1 UNK         0.1171 
    101 H101       23.0718   -2.5157    0.2208 H         1 UNK         0.0786 
    102 H102       22.0055   -2.1248   -1.1119 H         1 UNK         0.0786 
    103 H103       23.1232   -3.4841   -1.2432 H         1 UNK         0.0786 
    104 H104       25.9231   -1.3659   -0.3909 H         1 UNK         0.2977 
    105 H105       25.6318    0.5486   -4.8222 H         1 UNK         0.3127 
    106 H106       25.4483    3.2236   -5.6245 H         1 UNK         0.0770 
    107 H107       23.6457    0.8668   -6.3920 H         1 UNK         0.0814 
    108 H108       23.1966    2.5641   -6.4498 H         1 UNK         0.0814 
    109 H109       23.5229    1.8027   -4.9012 H         1 UNK         0.0814 
    110 H110       26.7174    0.5830   -7.5258 H         1 UNK         0.2983 
    111 H111       26.3152    1.8734  -10.1207 H         1 UNK         0.0947 
    112 H112       27.5944   -0.0156  -10.9790 H         1 UNK         0.0806 
    113 H113       26.4450   -0.6422   -9.8105 H         1 UNK         0.0806 
    114 H114       28.1421   -0.4605   -9.3730 H         1 UNK         0.0806 
    115 H115       28.3238    2.5867   -7.5091 H         1 UNK         0.3000 
    116 H116       30.0502    3.8984   -7.1523 H         1 UNK         0.0850 
    117 H117       30.4018    5.8426   -8.6948 H         1 UNK         0.0810 
    118 H118       28.7030    5.5713   -8.3642 H         1 UNK         0.0810 
    119 H119       29.3758    5.0800   -9.9102 H         1 UNK         0.0810 
    120 H120       31.2990    4.4339  -10.2890 H         1 UNK         0.3040 
    121 H121       33.7580    3.0781   -9.7603 H         1 UNK         0.0766 
    122 H122       33.6132    5.1130  -11.1803 H         1 UNK         0.0812 
    123 H123       32.6427    4.2439  -12.3709 H         1 UNK         0.0812 
    124 H124       34.3175    3.7889  -12.0914 H         1 UNK         0.0812 
    125 H125       30.7679    1.8954  -11.1175 H         1 UNK         0.3205 
    126 H126       32.0897   -0.4126  -12.4541 H         1 UNK         0.0754 
    127 H127       29.8759   -0.7297  -13.5128 H         1 UNK         0.0769 
    128 H128       30.4560    0.9025  -13.7814 H         1 UNK         0.0769 
    129 H129       29.2062    0.6019  -12.5796 H         1 UNK         0.0769 
    130 H130       31.6469    0.0083   -9.3518 H         1 UNK         0.2981 
    131 H131       29.7886   -2.0170   -8.6140 H         1 UNK         0.0541 
    132 H132       32.9742   -2.5398   -9.9064 H         1 UNK         0.3459 
    133 H133       33.0850   -4.2032   -9.3870 H         1 UNK         0.3459 
    134 H134       30.3676   -0.1921   -7.0902 H         1 UNK         0.0612 
    135 H135       30.5618   -1.7448   -6.3437 H         1 UNK         0.0612 
    136 H136       34.1869   -1.7542   -5.1816 H         1 UNK         0.0624 
    137 H137       33.1556   -2.8771   -6.0298 H         1 UNK         0.0624 
@<TRIPOS>BOND
     1    1    2 1    
     2    1   72 1    
     3    1   73 1    
     4    1   74 1    
     5    2    3 2    
     6    2    4 am   BACKBONE|DICT|INTERRES
     7    4    5 1    
     8    4   75 1    
     9    5    6 1    
    10    5   35 1    
    11    5   76 1    
    12    6    7 1    
    13    6   77 1    
    14    6   78 1    
    15    7    8 1    
    16    8    9 1    
    17    8   79 1    
    18    8   80 1    
    19    9   10 ar   
    20    9   14 ar   
    21   10   11 ar   
    22   10   81 1    
    23   11   12 ar   
    24   11   71 1    
    25   12   13 ar   
    26   12   82 1    
    27   13   14 ar   
    28   13   15 1    
    29   14   83 1    
    30   15   16 1    
    31   15   84 1    
    32   15   85 1    
    33   16   17 1    
    34   17   18 1    
    35   17   86 1    
    36   17   87 1    
    37   18   19 1    
    38   18   37 1    
    39   18   88 1    
    40   19   20 am   BACKBONE|DICT|INTERRES
    41   19   89 1    
    42   20   21 2    
    43   20   22 1    
    44   22   23 1    
    45   22   24 1    
    46   22   90 1    
    47   23   91 1    
    48   23   92 1    
    49   23   93 1    
    50   24   25 am   BACKBONE|DICT|INTERRES
    51   24   94 1    
    52   25   26 2    
    53   25   27 1    
    54   27   28 1    
    55   27   29 1    
    56   27   95 1    
    57   28   96 1    
    58   28   97 1    
    59   28   98 1    
    60   29   30 am   BACKBONE|DICT|INTERRES
    61   29   99 1    
    62   30   31 2    
    63   30   32 1    
    64   32   33 1    
    65   32   34 1    
    66   32  100 1    
    67   33  101 1    
    68   33  102 1    
    69   33  103 1    
    70   34   35 am   BACKBONE|DICT|INTERRES
    71   34  104 1    
    72   35   36 2    
    73   37   38 2    
    74   37   39 am   BACKBONE|DICT|INTERRES
    75   39   40 1    
    76   39  105 1    
    77   40   41 1    
    78   40   42 1    
    79   40  106 1    
    80   41  107 1    
    81   41  108 1    
    82   41  109 1    
    83   42   43 2    
    84   42   44 am   BACKBONE|DICT|INTERRES
    85   44   45 1    
    86   44  110 1    
    87   45   46 1    
    88   45   47 1    
    89   45  111 1    
    90   46  112 1    
    91   46  113 1    
    92   46  114 1    
    93   47   48 2    
    94   47   49 am   BACKBONE|DICT|INTERRES
    95   49   50 1    
    96   49  115 1    
    97   50   51 1    
    98   50   52 1    
    99   50  116 1    
   100   51  117 1    
   101   51  118 1    
   102   51  119 1    
   103   52   53 2    
   104   52   54 am   BACKBONE|DICT|INTERRES
   105   54   55 1    
   106   54  120 1    
   107   55   56 1    
   108   55   57 1    
   109   55  121 1    
   110   56  122 1    
   111   56  123 1    
   112   56  124 1    
   113   57   58 2    
   114   57   59 am   BACKBONE|DICT|INTERRES
   115   59   60 1    
   116   59  125 1    
   117   60   61 1    
   118   60   62 1    
   119   60  126 1    
   120   61  127 1    
   121   61  128 1    
   122   61  129 1    
   123   62   63 2    
   124   62   64 am   BACKBONE|DICT|INTERRES
   125   64   65 1    
   126   64  130 1    
   127   65   66 1    
   128   65   69 1    
   129   65  131 1    
   130   66   67 am   BACKBONE|DICT|INTERRES
   131   66   68 2    
   132   67  132 1    
   133   67  133 1    
   134   69   70 1    
   135   69  134 1    
   136   69  135 1    
   137   70   71 1    
   138   71  136 1    
   139   71  137 1    
@<TRIPOS>SUBSTRUCTURE
     1 UNK         1 GROUP             0       ****    0 ROOT    
