@<TRIPOS>MOLECULE
3R137
137   139    1
SMALL
USER_CHARGES


@<TRIPOS>ATOM
      1 CA         24.6009   -6.0821   -2.8495 C.3       0 UNK        -0.2020 
      2 C          25.2509   -4.9575   -2.0575 C.2       0 UNK         0.4855 
      3 O          24.5511   -4.0671   -1.5725 O.2       0 UNK        -0.5197 
      4 N          26.5844   -4.9946   -1.9240 N.am      1 UNK        -0.4892 
      5 CA         27.4083   -4.0060   -1.2179 C.3       1 UNK         0.0835 
      6 C6         28.8953   -4.4394   -1.2079 C.3       12 UNK        -0.0855 
      7 S7         29.9389   -3.4324   -0.0921 S.3       12 UNK        -0.2931 
      8 C8         31.5868   -3.5483   -0.8753 C.3       12 UNK         0.0378 
      9 C9         31.5705   -3.0729   -2.3216 C.ar      12 UNK        -0.0802 
     10 C10        31.7701   -3.9811   -3.3639 C.ar      12 UNK        -0.0944 
     11 C11        31.6553   -3.5744   -4.6957 C.ar      12 UNK        -0.0787 
     12 C12        31.3310   -2.2419   -4.9772 C.ar      12 UNK        -0.0862 
     13 C13        31.1517   -1.3131   -3.9450 C.ar      12 UNK        -0.0733 
     14 C14        31.2999   -1.7359   -2.6186 C.ar      12 UNK        -0.0832 
     15 C15        30.7705    0.1297   -4.2728 C.3       12 UNK         0.0240 
     16 S16        29.5006    0.7862   -3.1364 S.3       12 UNK        -0.2522 
     17 C17        28.6650    2.1098   -4.0770 C.3       12 UNK        -0.0967 
     18 CA         28.1339    1.7120   -5.4807 C.3       5 UNK         0.0660 
     19 N          27.6242    0.3397   -5.5472 N.am      5 UNK        -0.4015 
     20 C          27.3173   -0.3079   -6.6789 C.2       4 UNK         0.4946 
     21 O          27.4206    0.1885   -7.8001 O.2       4 UNK        -0.5353 
     22 CA         26.7508   -1.7266   -6.5272 C.3       4 UNK         0.0277 
     23 CB         27.8825   -2.7489   -6.3358 C.3       4 UNK        -0.1981 
     24 N          25.8037   -1.8056   -5.4120 N.am      4 UNK        -0.4209 
     25 C          24.5797   -1.2528   -5.4401 C.2       3 UNK         0.4942 
     26 O          24.1033   -0.7068   -6.4348 O.2       3 UNK        -0.5208 
     27 CA         23.7566   -1.2689   -4.1387 C.3       3 UNK         0.0250 
     28 CB         22.8496   -2.5073   -4.0903 C.3       3 UNK        -0.1990 
     29 N          24.5786   -1.2072   -2.9271 N.am      3 UNK        -0.4232 
     30 C          25.3723   -0.1728   -2.6071 C.2       2 UNK         0.4993 
     31 O          25.4464    0.8580   -3.2768 O.2       2 UNK        -0.5286 
     32 CA         26.2687   -0.3146   -1.3636 C.3       2 UNK         0.0209 
     33 CB         25.6117    0.3693   -0.1546 C.3       2 UNK        -0.1931 
     34 N          26.6215   -1.6933   -1.0063 N.am      2 UNK        -0.4546 
     35 C          27.2013   -2.5953   -1.8129 C.2       1 UNK         0.5154 
     36 O          27.4963   -2.3771   -2.9904 O.2       1 UNK        -0.5181 
     37 C          27.0791    2.7211   -5.9741 C.2       5 UNK         0.5014 
     38 O          27.4135    3.6181   -6.7475 O.2       5 UNK        -0.5248 
     39 N          25.8162    2.5222   -5.5653 N.am      6 UNK        -0.4434 
     40 CA         24.6487    3.2840   -6.0215 C.3       6 UNK         0.0363 
     41 CB         23.4134    2.8492   -5.2178 C.3       6 UNK        -0.1936 
     42 C          24.3809    3.1510   -7.5328 C.2       6 UNK         0.5081 
     43 O          23.9120    4.1074   -8.1495 O.2       6 UNK        -0.5248 
     44 N          24.7157    1.9883   -8.1085 N.am      7 UNK        -0.4718 
     45 CA         24.6750    1.7163   -9.5483 C.3       7 UNK         0.0273 
     46 CB         24.4857    0.2039   -9.7597 C.3       7 UNK        -0.1935 
     47 C          25.9220    2.2249  -10.3027 C.2       7 UNK         0.5018 
     48 O          25.9945    2.0367  -11.5178 O.2       7 UNK        -0.5186 
     49 N          26.8772    2.8394   -9.5859 N.am      8 UNK        -0.4240 
     50 CA         28.1709    3.3536  -10.0526 C.3       8 UNK         0.0235 
     51 CB         27.9887    4.4672  -11.1064 C.3       8 UNK        -0.2000 
     52 C          29.1530    2.2552  -10.5058 C.2       8 UNK         0.4941 
     53 O          30.0968    2.5514  -11.2409 O.2       8 UNK        -0.5273 
     54 N          28.9554    1.0179  -10.0342 N.am      9 UNK        -0.4262 
     55 CA         29.8234   -0.1294  -10.2827 C.3       9 UNK         0.0264 
     56 CB         28.9459   -1.3704  -10.5363 C.3       9 UNK        -0.1955 
     57 C          30.7650   -0.3033   -9.0821 C.2       9 UNK         0.5031 
     58 O          30.6694   -1.2967   -8.3621 O.2       9 UNK        -0.5390 
     59 N          31.6336    0.6926   -8.8605 N.am      10 UNK        -0.4204 
     60 CA         32.6293    0.7007   -7.7877 C.3       10 UNK         0.0237 
     61 CB         33.2184    2.1132   -7.6453 C.3       10 UNK        -0.1985 
     62 C          33.7332   -0.3369   -8.0471 C.2       10 UNK         0.4970 
     63 O          34.2900   -0.3625   -9.1473 O.2       10 UNK        -0.4914 
     64 N          34.0249   -1.1570   -7.0322 N.am      11 UNK        -0.4285 
     65 CA         34.9848   -2.2726   -7.1031 C.3       11 UNK         0.1007 
     66 C          36.3904   -1.9274   -6.5328 C.2       11 UNK         0.5703 
     67 N          36.6354   -0.7145   -6.0499 N.am      11 UNK        -0.7361 
     68 O          37.2844   -2.7704   -6.5439 O.2       11 UNK        -0.4986 
     69 C69        34.4055   -3.5648   -6.4640 C.3       12 UNK        -0.0947 
     70 S70        32.8191   -4.0490   -7.2305 S.3       12 UNK        -0.2240 
     71 C71        31.8272   -4.6091   -5.8058 C.3       12 UNK         0.0194 
     72 H72        25.3026   -6.8882   -3.0628 H         1 UNK         0.0906 
     73 H73        23.7668   -6.5024   -2.2881 H         1 UNK         0.0906 
     74 H74        24.2183   -5.7057   -3.7972 H         1 UNK         0.0906 
     75 H75        27.0965   -5.7404   -2.3730 H         1 UNK         0.3140 
     76 H76        27.0606   -3.9978   -0.1825 H         1 UNK         0.1085 
     77 H77        28.9786   -5.4755   -0.8760 H         1 UNK         0.0836 
     78 H78        29.2873   -4.4203   -2.2249 H         1 UNK         0.0836 
     79 H79        31.9385   -4.5791   -0.8085 H         1 UNK         0.0731 
     80 H80        32.2950   -2.9448   -0.3059 H         1 UNK         0.0731 
     81 H81        31.9810   -5.0172   -3.1363 H         1 UNK         0.1312 
     82 H82        31.2032   -1.9362   -6.0053 H         1 UNK         0.1406 
     83 H83        31.1482   -1.0379   -1.8068 H         1 UNK         0.1631 
     84 H84        30.4021    0.1792   -5.2962 H         1 UNK         0.0717 
     85 H85        31.6581    0.7614   -4.2245 H         1 UNK         0.0717 
     86 H86        27.8467    2.4538   -3.4403 H         1 UNK         0.0934 
     87 H87        29.3469    2.9577   -4.1636 H         1 UNK         0.0934 
     88 H88        28.9704    1.7691   -6.1807 H         1 UNK         0.0739 
     89 H89        27.5113   -0.1370   -4.6631 H         1 UNK         0.3093 
     90 H90        26.2213   -1.9758   -7.4493 H         1 UNK         0.0818 
     91 H91        28.4644   -2.5489   -5.4358 H         1 UNK         0.0819 
     92 H92        27.4941   -3.7645   -6.2639 H         1 UNK         0.0819 
     93 H93        28.5752   -2.7240   -7.1784 H         1 UNK         0.0819 
     94 H94        26.1577   -2.1885   -4.5406 H         1 UNK         0.3041 
     95 H95        23.1185   -0.3829   -4.1445 H         1 UNK         0.0784 
     96 H96        22.1727   -2.5271   -4.9456 H         1 UNK         0.0793 
     97 H97        23.4282   -3.4301   -4.1129 H         1 UNK         0.0793 
     98 H98        22.2354   -2.5175   -3.1897 H         1 UNK         0.0793 
     99 H99        24.5868   -2.0307   -2.3344 H         1 UNK         0.3024 
    100 H100       27.1991    0.2091   -1.5821 H         1 UNK         0.1171 
    101 H101       25.3605    1.4066   -0.3819 H         1 UNK         0.0786 
    102 H102       26.2799    0.3827    0.7067 H         1 UNK         0.0786 
    103 H103       24.6893   -0.1323    0.1410 H         1 UNK         0.0786 
    104 H104       26.3806   -1.9803   -0.0685 H         1 UNK         0.2977 
    105 H105       25.6437    1.8003   -4.8665 H         1 UNK         0.3127 
    106 H106       24.8416    4.3382   -5.8125 H         1 UNK         0.0770 
    107 H107       23.1728    1.7995   -5.3889 H         1 UNK         0.0814 
    108 H108       22.5378    3.4352   -5.5001 H         1 UNK         0.0814 
    109 H109       23.5660    2.9875   -4.1472 H         1 UNK         0.0814 
    110 H110       25.0698    1.2423   -7.5227 H         1 UNK         0.2983 
    111 H111       23.8115    2.2281   -9.9787 H         1 UNK         0.0947 
    112 H112       24.3737   -0.0345  -10.8181 H         1 UNK         0.0806 
    113 H113       23.5925   -0.1591   -9.2508 H         1 UNK         0.0806 
    114 H114       25.3367   -0.3662   -9.3866 H         1 UNK         0.0806 
    115 H115       26.7270    2.9312   -8.5870 H         1 UNK         0.3000 
    116 H116       28.6349    3.8123   -9.1784 H         1 UNK         0.0850 
    117 H117       28.9367    4.9629  -11.3192 H         1 UNK         0.0810 
    118 H118       27.2960    5.2334  -10.7583 H         1 UNK         0.0810 
    119 H119       27.6111    4.0754  -12.0511 H         1 UNK         0.0810 
    120 H120       28.2185    0.8613   -9.3475 H         1 UNK         0.3040 
    121 H121       30.4377    0.0345  -11.1705 H         1 UNK         0.0766 
    122 H122       28.2997   -1.2268  -11.4022 H         1 UNK         0.0812 
    123 H123       28.3100   -1.5994   -9.6803 H         1 UNK         0.0812 
    124 H124       29.5614   -2.2497  -10.7301 H         1 UNK         0.0812 
    125 H125       31.6577    1.4611   -9.5169 H         1 UNK         0.3205 
    126 H126       32.1205    0.4501   -6.8568 H         1 UNK         0.0754 
    127 H127       33.9454    2.1533   -6.8331 H         1 UNK         0.0769 
    128 H128       32.4427    2.8457   -7.4206 H         1 UNK         0.0769 
    129 H129       33.7283    2.4321   -8.5555 H         1 UNK         0.0769 
    130 H130       33.5335   -1.0632   -6.1564 H         1 UNK         0.2981 
    131 H131       35.1660   -2.5063   -8.1538 H         1 UNK         0.0541 
    132 H132       35.9179   -0.0083   -6.0497 H         1 UNK         0.3459 
    133 H133       37.5530   -0.5035   -5.6904 H         1 UNK         0.3459 
    134 H134       35.0972   -4.4000   -6.5865 H         1 UNK         0.0612 
    135 H135       34.2773   -3.4300   -5.3892 H         1 UNK         0.0612 
    136 H136       32.2871   -5.5179   -5.4144 H         1 UNK         0.0624 
    137 H137       30.8381   -4.8945   -6.1659 H         1 UNK         0.0624 
@<TRIPOS>BOND
     1    1    2 1    
     2    1   72 1    
     3    1   73 1    
     4    1   74 1    
     5    2    3 2    
     6    2    4 am   BACKBONE|DICT|INTERRES
     7    4    5 1    
     8    4   75 1    
     9    5    6 1    
    10    5   35 1    
    11    5   76 1    
    12    6    7 1    
    13    6   77 1    
    14    6   78 1    
    15    7    8 1    
    16    8    9 1    
    17    8   79 1    
    18    8   80 1    
    19    9   10 ar   
    20    9   14 ar   
    21   10   11 ar   
    22   10   81 1    
    23   11   12 ar   
    24   11   71 1    
    25   12   13 ar   
    26   12   82 1    
    27   13   14 ar   
    28   13   15 1    
    29   14   83 1    
    30   15   16 1    
    31   15   84 1    
    32   15   85 1    
    33   16   17 1    
    34   17   18 1    
    35   17   86 1    
    36   17   87 1    
    37   18   19 1    
    38   18   37 1    
    39   18   88 1    
    40   19   20 am   BACKBONE|DICT|INTERRES
    41   19   89 1    
    42   20   21 2    
    43   20   22 1    
    44   22   23 1    
    45   22   24 1    
    46   22   90 1    
    47   23   91 1    
    48   23   92 1    
    49   23   93 1    
    50   24   25 am   BACKBONE|DICT|INTERRES
    51   24   94 1    
    52   25   26 2    
    53   25   27 1    
    54   27   28 1    
    55   27   29 1    
    56   27   95 1    
    57   28   96 1    
    58   28   97 1    
    59   28   98 1    
    60   29   30 am   BACKBONE|DICT|INTERRES
    61   29   99 1    
    62   30   31 2    
    63   30   32 1    
    64   32   33 1    
    65   32   34 1    
    66   32  100 1    
    67   33  101 1    
    68   33  102 1    
    69   33  103 1    
    70   34   35 am   BACKBONE|DICT|INTERRES
    71   34  104 1    
    72   35   36 2    
    73   37   38 2    
    74   37   39 am   BACKBONE|DICT|INTERRES
    75   39   40 1    
    76   39  105 1    
    77   40   41 1    
    78   40   42 1    
    79   40  106 1    
    80   41  107 1    
    81   41  108 1    
    82   41  109 1    
    83   42   43 2    
    84   42   44 am   BACKBONE|DICT|INTERRES
    85   44   45 1    
    86   44  110 1    
    87   45   46 1    
    88   45   47 1    
    89   45  111 1    
    90   46  112 1    
    91   46  113 1    
    92   46  114 1    
    93   47   48 2    
    94   47   49 am   BACKBONE|DICT|INTERRES
    95   49   50 1    
    96   49  115 1    
    97   50   51 1    
    98   50   52 1    
    99   50  116 1    
   100   51  117 1    
   101   51  118 1    
   102   51  119 1    
   103   52   53 2    
   104   52   54 am   BACKBONE|DICT|INTERRES
   105   54   55 1    
   106   54  120 1    
   107   55   56 1    
   108   55   57 1    
   109   55  121 1    
   110   56  122 1    
   111   56  123 1    
   112   56  124 1    
   113   57   58 2    
   114   57   59 am   BACKBONE|DICT|INTERRES
   115   59   60 1    
   116   59  125 1    
   117   60   61 1    
   118   60   62 1    
   119   60  126 1    
   120   61  127 1    
   121   61  128 1    
   122   61  129 1    
   123   62   63 2    
   124   62   64 am   BACKBONE|DICT|INTERRES
   125   64   65 1    
   126   64  130 1    
   127   65   66 1    
   128   65   69 1    
   129   65  131 1    
   130   66   67 am   BACKBONE|DICT|INTERRES
   131   66   68 2    
   132   67  132 1    
   133   67  133 1    
   134   69   70 1    
   135   69  134 1    
   136   69  135 1    
   137   70   71 1    
   138   71  136 1    
   139   71  137 1    
@<TRIPOS>SUBSTRUCTURE
     1 UNK         1 GROUP             0       ****    0 ROOT    
