@<TRIPOS>MOLECULE
3R137
137   139    1
SMALL
USER_CHARGES


@<TRIPOS>ATOM
      1 CA         27.2581   -1.9016    2.3196 C.3       0 UNK        -0.2020 
      2 C          26.5179   -3.0761    1.6849 C.2       0 UNK         0.4855 
      3 O          25.8929   -3.8536    2.4030 O.2       0 UNK        -0.5197 
      4 N          26.5549   -3.2563    0.3564 N.am      1 UNK        -0.4892 
      5 CA         27.2309   -2.4118   -0.6428 C.3       1 UNK         0.0835 
      6 C6         27.4418   -3.1626   -1.9812 C.3       12 UNK        -0.0855 
      7 S7         28.3547   -4.7275   -1.7730 S.3       12 UNK        -0.2931 
      8 C8         30.0856   -4.1746   -1.9465 C.3       12 UNK         0.0378 
      9 C9         30.5554   -3.9775   -3.3873 C.ar      12 UNK        -0.0802 
     10 C10        31.4800   -2.9680   -3.6737 C.ar      12 UNK        -0.0944 
     11 C11        32.0119   -2.8214   -4.9591 C.ar      12 UNK        -0.0787 
     12 C12        31.5983   -3.6964   -5.9716 C.ar      12 UNK        -0.0862 
     13 C13        30.6634   -4.7014   -5.7071 C.ar      12 UNK        -0.0733 
     14 C14        30.1514   -4.8397   -4.4132 C.ar      12 UNK        -0.0832 
     15 C15        30.2433   -5.6730   -6.8040 C.3       12 UNK         0.0240 
     16 S16        29.2374   -4.8900   -8.1065 S.3       12 UNK        -0.2522 
     17 C17        27.7477   -4.3743   -7.1841 C.3       12 UNK        -0.0967 
     18 CA         27.1335   -3.0529   -7.7206 C.3       5 UNK         0.0660 
     19 N          25.7817   -2.7841   -7.2141 N.am      5 UNK        -0.4015 
     20 C          25.4171   -2.6395   -5.9337 C.2       4 UNK         0.4946 
     21 O          26.1708   -2.8215   -4.9757 O.2       4 UNK        -0.5353 
     22 CA         23.9958   -2.1150   -5.6764 C.3       4 UNK         0.0277 
     23 CB         23.1659   -3.1463   -4.8952 C.3       4 UNK        -0.1981 
     24 N          24.0338   -0.8572   -4.9258 N.am      4 UNK        -0.4209 
     25 C          24.7014    0.2492   -5.2792 C.2       3 UNK         0.4942 
     26 O          25.3029    0.3665   -6.3472 O.2       3 UNK        -0.5208 
     27 CA         24.7432    1.4201   -4.2808 C.3       3 UNK         0.0250 
     28 CB         23.5811    2.4002   -4.5304 C.3       3 UNK        -0.1990 
     29 N          24.8345    1.0333   -2.8639 N.am      3 UNK        -0.4232 
     30 C          23.9298    0.4141   -2.0937 C.2       2 UNK         0.4993 
     31 O          22.8417    0.0037   -2.5018 O.2       2 UNK        -0.5286 
     32 CA         24.3441    0.1637   -0.6340 C.3       2 UNK         0.0209 
     33 CB         23.1290   -0.0226    0.2936 C.3       2 UNK        -0.1931 
     34 N          25.2047   -1.0144   -0.5248 N.am      2 UNK        -0.4546 
     35 C          26.4942   -1.0768   -0.8867 C.2       1 UNK         0.5154 
     36 O          27.1087   -0.1233   -1.3665 O.2       1 UNK        -0.5181 
     37 C          28.0727   -1.8375   -7.5456 C.2       5 UNK         0.5014 
     38 O          28.6289   -1.3686   -8.5377 O.2       5 UNK        -0.5248 
     39 N          28.2111   -1.3373   -6.3111 N.am      6 UNK        -0.4434 
     40 CA         29.1356   -0.2784   -5.9006 C.3       6 UNK         0.0363 
     41 CB         28.9657   -0.0072   -4.3984 C.3       6 UNK        -0.1936 
     42 C          29.0398    1.0305   -6.7033 C.2       6 UNK         0.5081 
     43 O          30.0780    1.5971   -7.0484 O.2       6 UNK        -0.5248 
     44 N          27.8179    1.4955   -6.9951 N.am      7 UNK        -0.4718 
     45 CA         27.5876    2.7073   -7.7878 C.3       7 UNK         0.0273 
     46 CB         26.2225    3.3167   -7.4308 C.3       7 UNK        -0.1935 
     47 C          27.6787    2.4407   -9.2978 C.2       7 UNK         0.5018 
     48 O          28.0875    3.3337  -10.0391 O.2       7 UNK        -0.5186 
     49 N          27.3119    1.2244   -9.7262 N.am      8 UNK        -0.4240 
     50 CA         27.3536    0.7853  -11.1238 C.3       8 UNK         0.0235 
     51 CB         26.5203   -0.4963  -11.2910 C.3       8 UNK        -0.2000 
     52 C          28.7921    0.5766  -11.6221 C.2       8 UNK         0.4941 
     53 O          29.1293    1.0296  -12.7162 O.2       8 UNK        -0.5273 
     54 N          29.6182   -0.0770  -10.7951 N.am      9 UNK        -0.4262 
     55 CA         31.0498   -0.2806  -11.0250 C.3       9 UNK         0.0264 
     56 CB         31.5090   -1.5044  -10.2160 C.3       9 UNK        -0.1955 
     57 C          31.9013    0.9583  -10.6843 C.2       9 UNK         0.5031 
     58 O          33.0769    0.9860  -11.0515 O.2       9 UNK        -0.5390 
     59 N          31.3010    1.9490  -10.0047 N.am      10 UNK        -0.4204 
     60 CA         31.8872    3.2150   -9.5482 C.3       10 UNK         0.0237 
     61 CB         32.2617    4.1135  -10.7463 C.3       10 UNK        -0.1985 
     62 C          33.0487    2.9961   -8.5606 C.2       10 UNK         0.4970 
     63 O          34.1330    3.5555   -8.7381 O.2       10 UNK        -0.4914 
     64 N          32.7858    2.1738   -7.5420 N.am      11 UNK        -0.4285 
     65 CA         33.7236    1.7798   -6.4820 C.3       11 UNK         0.1007 
     66 C          33.1756    2.0144   -5.0461 C.2       11 UNK         0.5703 
     67 N          31.9154    2.3915   -4.8634 N.am      11 UNK        -0.7361 
     68 O          33.9194    1.8792   -4.0776 O.2       11 UNK        -0.4986 
     69 C69        34.2472    0.3338   -6.6948 C.3       12 UNK        -0.0947 
     70 S70        32.9210   -0.9160   -6.8126 S.3       12 UNK        -0.2240 
     71 C71        33.0813   -1.7595   -5.2073 C.3       12 UNK         0.0194 
     72 H72        26.8120   -0.9519    2.0267 H         1 UNK         0.0906 
     73 H73        27.2090   -1.9657    3.4065 H         1 UNK         0.0906 
     74 H74        28.3112   -1.9006    2.0413 H         1 UNK         0.0906 
     75 H75        26.0922   -4.0696   -0.0253 H         1 UNK         0.3140 
     76 H76        28.2195   -2.1523   -0.2606 H         1 UNK         0.1085 
     77 H77        26.4779   -3.4011   -2.4345 H         1 UNK         0.0836 
     78 H78        27.9684   -2.5400   -2.7064 H         1 UNK         0.0836 
     79 H79        30.2232   -3.2595   -1.3684 H         1 UNK         0.0731 
     80 H80        30.7289   -4.9248   -1.4850 H         1 UNK         0.0731 
     81 H81        31.8157   -2.3130   -2.8811 H         1 UNK         0.1312 
     82 H82        32.0110   -3.6068   -6.9670 H         1 UNK         0.1406 
     83 H83        29.4525   -5.6367   -4.1996 H         1 UNK         0.1631 
     84 H84        29.6872   -6.5142   -6.3873 H         1 UNK         0.0717 
     85 H85        31.1373   -6.0982   -7.2622 H         1 UNK         0.0717 
     86 H86        27.0170   -5.1804   -7.2631 H         1 UNK         0.0934 
     87 H87        27.9785   -4.2867   -6.1225 H         1 UNK         0.0934 
     88 H88        27.0009   -3.1792   -8.7966 H         1 UNK         0.0739 
     89 H89        25.0968   -2.5718   -7.9257 H         1 UNK         0.3093 
     90 H90        23.5022   -1.9184   -6.6301 H         1 UNK         0.0818 
     91 H91        22.1449   -2.7980   -4.7380 H         1 UNK         0.0819 
     92 H92        23.1070   -4.0916   -5.4363 H         1 UNK         0.0819 
     93 H93        23.6023   -3.3563   -3.9175 H         1 UNK         0.0819 
     94 H94        23.5459   -0.8315   -4.0345 H         1 UNK         0.3041 
     95 H95        25.6698    1.9580   -4.4871 H         1 UNK         0.0784 
     96 H96        23.5866    2.7542   -5.5622 H         1 UNK         0.0793 
     97 H97        22.6100    1.9370   -4.3538 H         1 UNK         0.0793 
     98 H98        23.6570    3.2770   -3.8873 H         1 UNK         0.0793 
     99 H99        25.7401    1.1975   -2.4375 H         1 UNK         0.3024 
    100 H100       24.8967    1.0399   -0.2858 H         1 UNK         0.1171 
    101 H101       22.5487   -0.9085    0.0320 H         1 UNK         0.0786 
    102 H102       22.4581    0.8355    0.2337 H         1 UNK         0.0786 
    103 H103       23.4367   -0.1197    1.3350 H         1 UNK         0.0786 
    104 H104       24.7790   -1.8535   -0.1571 H         1 UNK         0.2977 
    105 H105       27.6615   -1.7810   -5.5795 H         1 UNK         0.3127 
    106 H106       30.1408   -0.6702   -6.0563 H         1 UNK         0.0770 
    107 H107       29.2303   -0.8843   -3.8092 H         1 UNK         0.0814 
    108 H108       27.9406    0.2698   -4.1497 H         1 UNK         0.0814 
    109 H109       29.6143    0.8043   -4.0675 H         1 UNK         0.0814 
    110 H110       26.9936    0.9746   -6.6992 H         1 UNK         0.2983 
    111 H111       28.3543    3.4445   -7.5377 H         1 UNK         0.0947 
    112 H112       26.0621    4.2512   -7.9702 H         1 UNK         0.0806 
    113 H113       26.1544    3.5431   -6.3671 H         1 UNK         0.0806 
    114 H114       25.3992    2.6499   -7.6884 H         1 UNK         0.0806 
    115 H115       27.0378    0.5402   -9.0357 H         1 UNK         0.3000 
    116 H116       26.8995    1.5666  -11.7375 H         1 UNK         0.0850 
    117 H117       26.5118   -0.8203  -12.3326 H         1 UNK         0.0810 
    118 H118       25.4836   -0.3369  -10.9940 H         1 UNK         0.0810 
    119 H119       26.9166   -1.3211  -10.6982 H         1 UNK         0.0810 
    120 H120       29.2399   -0.4677   -9.9302 H         1 UNK         0.3040 
    121 H121       31.2074   -0.4970  -12.0837 H         1 UNK         0.0766 
    122 H122       32.5815   -1.6726  -10.3222 H         1 UNK         0.0812 
    123 H123       31.0020   -2.4106  -10.5475 H         1 UNK         0.0812 
    124 H124       31.2990   -1.3809   -9.1540 H         1 UNK         0.0812 
    125 H125       30.3394    1.7975   -9.7351 H         1 UNK         0.3205 
    126 H126       31.1032    3.7273   -8.9880 H         1 UNK         0.0754 
    127 H127       32.5949    5.0954  -10.4081 H         1 UNK         0.0769 
    128 H128       31.4066    4.2704  -11.4039 H         1 UNK         0.0769 
    129 H129       33.0683    3.6839  -11.3413 H         1 UNK         0.0769 
    130 H130       31.8477    1.7874   -7.4582 H         1 UNK         0.2981 
    131 H131       34.5936    2.4364   -6.5352 H         1 UNK         0.0541 
    132 H132       31.2759    2.4472   -5.6452 H         1 UNK         0.3459 
    133 H133       31.5873    2.5624   -3.9270 H         1 UNK         0.3459 
    134 H134       34.9553    0.0554   -5.9124 H         1 UNK         0.0612 
    135 H135       34.8128    0.2931   -7.6268 H         1 UNK         0.0612 
    136 H136       34.0626   -2.2321   -5.1514 H         1 UNK         0.0624 
    137 H137       33.0499   -1.0047   -4.4201 H         1 UNK         0.0624 
@<TRIPOS>BOND
     1    1    2 1    
     2    1   72 1    
     3    1   73 1    
     4    1   74 1    
     5    2    3 2    
     6    2    4 am   BACKBONE|DICT|INTERRES
     7    4    5 1    
     8    4   75 1    
     9    5    6 1    
    10    5   35 1    
    11    5   76 1    
    12    6    7 1    
    13    6   77 1    
    14    6   78 1    
    15    7    8 1    
    16    8    9 1    
    17    8   79 1    
    18    8   80 1    
    19    9   10 ar   
    20    9   14 ar   
    21   10   11 ar   
    22   10   81 1    
    23   11   12 ar   
    24   11   71 1    
    25   12   13 ar   
    26   12   82 1    
    27   13   14 ar   
    28   13   15 1    
    29   14   83 1    
    30   15   16 1    
    31   15   84 1    
    32   15   85 1    
    33   16   17 1    
    34   17   18 1    
    35   17   86 1    
    36   17   87 1    
    37   18   19 1    
    38   18   37 1    
    39   18   88 1    
    40   19   20 am   BACKBONE|DICT|INTERRES
    41   19   89 1    
    42   20   21 2    
    43   20   22 1    
    44   22   23 1    
    45   22   24 1    
    46   22   90 1    
    47   23   91 1    
    48   23   92 1    
    49   23   93 1    
    50   24   25 am   BACKBONE|DICT|INTERRES
    51   24   94 1    
    52   25   26 2    
    53   25   27 1    
    54   27   28 1    
    55   27   29 1    
    56   27   95 1    
    57   28   96 1    
    58   28   97 1    
    59   28   98 1    
    60   29   30 am   BACKBONE|DICT|INTERRES
    61   29   99 1    
    62   30   31 2    
    63   30   32 1    
    64   32   33 1    
    65   32   34 1    
    66   32  100 1    
    67   33  101 1    
    68   33  102 1    
    69   33  103 1    
    70   34   35 am   BACKBONE|DICT|INTERRES
    71   34  104 1    
    72   35   36 2    
    73   37   38 2    
    74   37   39 am   BACKBONE|DICT|INTERRES
    75   39   40 1    
    76   39  105 1    
    77   40   41 1    
    78   40   42 1    
    79   40  106 1    
    80   41  107 1    
    81   41  108 1    
    82   41  109 1    
    83   42   43 2    
    84   42   44 am   BACKBONE|DICT|INTERRES
    85   44   45 1    
    86   44  110 1    
    87   45   46 1    
    88   45   47 1    
    89   45  111 1    
    90   46  112 1    
    91   46  113 1    
    92   46  114 1    
    93   47   48 2    
    94   47   49 am   BACKBONE|DICT|INTERRES
    95   49   50 1    
    96   49  115 1    
    97   50   51 1    
    98   50   52 1    
    99   50  116 1    
   100   51  117 1    
   101   51  118 1    
   102   51  119 1    
   103   52   53 2    
   104   52   54 am   BACKBONE|DICT|INTERRES
   105   54   55 1    
   106   54  120 1    
   107   55   56 1    
   108   55   57 1    
   109   55  121 1    
   110   56  122 1    
   111   56  123 1    
   112   56  124 1    
   113   57   58 2    
   114   57   59 am   BACKBONE|DICT|INTERRES
   115   59   60 1    
   116   59  125 1    
   117   60   61 1    
   118   60   62 1    
   119   60  126 1    
   120   61  127 1    
   121   61  128 1    
   122   61  129 1    
   123   62   63 2    
   124   62   64 am   BACKBONE|DICT|INTERRES
   125   64   65 1    
   126   64  130 1    
   127   65   66 1    
   128   65   69 1    
   129   65  131 1    
   130   66   67 am   BACKBONE|DICT|INTERRES
   131   66   68 2    
   132   67  132 1    
   133   67  133 1    
   134   69   70 1    
   135   69  134 1    
   136   69  135 1    
   137   70   71 1    
   138   71  136 1    
   139   71  137 1    
@<TRIPOS>SUBSTRUCTURE
     1 UNK         1 GROUP             0       ****    0 ROOT    
