@<TRIPOS>MOLECULE
3R137
137   139    1
SMALL
USER_CHARGES


@<TRIPOS>ATOM
      1 CA         29.0075   -1.9986    0.4419 C.3       0 UNK        -0.2020 
      2 C          28.1036   -3.2116    0.6480 C.2       0 UNK         0.4855 
      3 O          27.8555   -3.5918    1.7901 O.2       0 UNK        -0.5197 
      4 N          27.5820   -3.8491   -0.4104 N.am      1 UNK        -0.4892 
      5 CA         27.7738   -3.5092   -1.8287 C.3       1 UNK         0.0835 
      6 C6         27.7603   -4.7668   -2.7335 C.3       12 UNK        -0.0855 
      7 S7         29.2570   -5.7863   -2.4849 S.3       12 UNK        -0.2931 
      8 C8         30.2349   -5.4257   -3.9851 C.3       12 UNK         0.0378 
      9 C9         31.0014   -4.1109   -3.8889 C.ar      12 UNK        -0.0802 
     10 C10        32.3800   -4.1044   -3.6470 C.ar      12 UNK        -0.0944 
     11 C11        33.0884   -2.8973   -3.6011 C.ar      12 UNK        -0.0787 
     12 C12        32.4047   -1.6900   -3.7621 C.ar      12 UNK        -0.0862 
     13 C13        31.0374   -1.6862   -4.0318 C.ar      12 UNK        -0.0733 
     14 C14        30.3441   -2.8961   -4.0967 C.ar      12 UNK        -0.0832 
     15 C15        30.3139   -0.3854   -4.3181 C.3       12 UNK         0.0240 
     16 S16        29.3073    0.1394   -2.8929 S.3       12 UNK        -0.2522 
     17 C17        28.2119    1.4542   -3.5442 C.3       12 UNK        -0.0967 
     18 CA         27.8431    1.3665   -5.0464 C.3       5 UNK         0.0660 
     19 N          27.1977    0.0983   -5.4108 N.am      5 UNK        -0.4015 
     20 C          27.0227   -0.3230   -6.6719 C.2       4 UNK         0.4946 
     21 O          27.4120    0.3023   -7.6559 O.2       4 UNK        -0.5353 
     22 CA         26.2759   -1.6446   -6.8905 C.3       4 UNK         0.0277 
     23 CB         27.2490   -2.8333   -6.8828 C.3       4 UNK        -0.1981 
     24 N          25.2273   -1.8438   -5.8916 N.am      4 UNK        -0.4209 
     25 C          24.0161   -1.2737   -5.9553 C.2       3 UNK         0.4942 
     26 O          23.6357   -0.5763   -6.8962 O.2       3 UNK        -0.5208 
     27 CA         23.0780   -1.4968   -4.7554 C.3       3 UNK         0.0250 
     28 CB         22.2804   -2.7991   -4.9290 C.3       3 UNK        -0.1990 
     29 N          23.7719   -1.5163   -3.4635 N.am      3 UNK        -0.4232 
     30 C          24.4294   -0.4710   -2.9435 C.2       2 UNK         0.4993 
     31 O          24.5359    0.6208   -3.5026 O.2       2 UNK        -0.5286 
     32 CA         25.1290   -0.6896   -1.5922 C.3       2 UNK         0.0209 
     33 CB         24.1177   -0.5863   -0.4393 C.3       2 UNK        -0.1931 
     34 N          25.9039   -1.9317   -1.4536 N.am      2 UNK        -0.4546 
     35 C          26.7914   -2.4281   -2.3307 C.2       1 UNK         0.5154 
     36 O          26.8878   -2.0402   -3.4954 O.2       1 UNK        -0.5181 
     37 C          27.0017    2.5796   -5.4821 C.2       5 UNK         0.5014 
     38 O          27.5703    3.5490   -5.9844 O.2       5 UNK        -0.5248 
     39 N          25.6701    2.4886   -5.3460 N.am      6 UNK        -0.4434 
     40 CA         24.7113    3.4816   -5.8426 C.3       6 UNK         0.0363 
     41 CB         23.2978    3.1004   -5.3747 C.3       6 UNK        -0.1936 
     42 C          24.7427    3.6484   -7.3740 C.2       6 UNK         0.5081 
     43 O          24.5302    4.7561   -7.8672 O.2       6 UNK        -0.5248 
     44 N          25.0242    2.5541   -8.0930 N.am      7 UNK        -0.4718 
     45 CA         25.1876    2.5277   -9.5483 C.3       7 UNK         0.0273 
     46 CB         24.7898    1.1302  -10.0531 C.3       7 UNK        -0.1935 
     47 C          26.6182    2.8727  -10.0075 C.2       7 UNK         0.5018 
     48 O          26.8180    3.0869  -11.2037 O.2       7 UNK        -0.5186 
     49 N          27.5815    2.8835   -9.0712 N.am      8 UNK        -0.4240 
     50 CA         29.0358    2.9639   -9.2722 C.3       8 UNK         0.0235 
     51 CB         29.4436    4.3544   -9.8029 C.3       8 UNK        -0.2000 
     52 C          29.5714    1.8009  -10.1360 C.2       8 UNK         0.4941 
     53 O          30.4254    2.0093  -10.9999 O.2       8 UNK        -0.5273 
     54 N          29.0281    0.5991   -9.9038 N.am      9 UNK        -0.4262 
     55 CA         29.2116   -0.5869  -10.7415 C.3       9 UNK         0.0264 
     56 CB         27.8574   -1.3101  -10.8516 C.3       9 UNK        -0.1955 
     57 C          30.2971   -1.5530  -10.2364 C.2       9 UNK         0.5031 
     58 O          30.5799   -2.5292  -10.9340 O.2       9 UNK        -0.5390 
     59 N          30.8773   -1.3031   -9.0559 N.am      10 UNK        -0.4204 
     60 CA         31.8912   -2.1569   -8.4367 C.3       10 UNK         0.0237 
     61 CB         31.2078   -3.1646   -7.4981 C.3       10 UNK        -0.1985 
     62 C          32.9191   -1.3022   -7.6875 C.2       10 UNK         0.4970 
     63 O          32.5534   -0.2638   -7.1309 O.2       10 UNK        -0.4914 
     64 N          34.1743   -1.7733   -7.6945 N.am      11 UNK        -0.4285 
     65 CA         35.3709   -1.1291   -7.1238 C.3       11 UNK         0.1007 
     66 C          35.6175    0.3104   -7.6776 C.2       11 UNK         0.5703 
     67 N          36.2161    1.2139   -6.9115 N.am      11 UNK        -0.7361 
     68 O          35.3239    0.5997   -8.8366 O.2       11 UNK        -0.4986 
     69 C69        35.4485   -1.2556   -5.5731 C.3       12 UNK        -0.0947 
     70 S70        35.4711   -2.9923   -5.0027 S.3       12 UNK        -0.2240 
     71 C71        34.5960   -2.8962   -3.4070 C.3       12 UNK         0.0194 
     72 H72        28.5123   -1.2296   -0.1497 H         1 UNK         0.0906 
     73 H73        29.2737   -1.5537    1.4005 H         1 UNK         0.0906 
     74 H74        29.9331   -2.2855   -0.0571 H         1 UNK         0.0906 
     75 H75        27.0050   -4.6613   -0.2399 H         1 UNK         0.3140 
     76 H76        28.7570   -3.0526   -1.9377 H         1 UNK         0.1085 
     77 H77        27.6866   -4.5076   -3.7908 H         1 UNK         0.0836 
     78 H78        26.8812   -5.3786   -2.5237 H         1 UNK         0.0836 
     79 H79        29.5871   -5.4175   -4.8631 H         1 UNK         0.0731 
     80 H80        30.9334   -6.2491   -4.1417 H         1 UNK         0.0731 
     81 H81        32.9079   -5.0393   -3.5171 H         1 UNK         0.1312 
     82 H82        32.9383   -0.7519   -3.7137 H         1 UNK         0.1406 
     83 H83        29.2890   -2.8839   -4.3195 H         1 UNK         0.1631 
     84 H84        29.7053   -0.5547   -5.2030 H         1 UNK         0.0717 
     85 H85        31.0187    0.4068   -4.5761 H         1 UNK         0.0717 
     86 H86        27.3059    1.4571   -2.9361 H         1 UNK         0.0934 
     87 H87        28.7061    2.4065   -3.3406 H         1 UNK         0.0934 
     88 H88        28.7671    1.4417   -5.6226 H         1 UNK         0.0739 
     89 H89        26.9173   -0.5115   -4.6475 H         1 UNK         0.3093 
     90 H90        25.8156   -1.5996   -7.8800 H         1 UNK         0.0818 
     91 H91        27.7067   -2.9758   -5.9062 H         1 UNK         0.0819 
     92 H92        26.7407   -3.7598   -7.1500 H         1 UNK         0.0819 
     93 H93        28.0541   -2.6864   -7.6042 H         1 UNK         0.0819 
     94 H94        25.4957   -2.3253   -5.0416 H         1 UNK         0.3041 
     95 H95        22.3713   -0.6641   -4.7371 H         1 UNK         0.0784 
     96 H96        21.7373   -2.8001   -5.8752 H         1 UNK         0.0793 
     97 H97        22.9297   -3.6756   -4.9251 H         1 UNK         0.0793 
     98 H98        21.5435   -2.9223   -4.1351 H         1 UNK         0.0793 
     99 H99        23.7534   -2.3800   -2.9407 H         1 UNK         0.3024 
    100 H100       25.8420    0.1295   -1.4797 H         1 UNK         0.1171 
    101 H101       24.6184   -0.5760    0.5291 H         1 UNK         0.0786 
    102 H102       23.5363    0.3345   -0.5089 H         1 UNK         0.0786 
    103 H103       23.4127   -1.4185   -0.4437 H         1 UNK         0.0786 
    104 H104       25.8892   -2.3593   -0.5385 H         1 UNK         0.2977 
    105 H105       25.2796    1.6897   -4.8480 H         1 UNK         0.3127 
    106 H106       24.9721    4.4455   -5.4008 H         1 UNK         0.0770 
    107 H107       22.9982    2.1229   -5.7555 H         1 UNK         0.0814 
    108 H108       22.5612    3.8273   -5.7198 H         1 UNK         0.0814 
    109 H109       23.2360    3.0675   -4.2868 H         1 UNK         0.0814 
    110 H110       25.1702    1.6804   -7.6055 H         1 UNK         0.2983 
    111 H111       24.5145    3.2594  -10.0007 H         1 UNK         0.0947 
    112 H112       24.8681    1.0673  -11.1393 H         1 UNK         0.0806 
    113 H113       23.7596    0.8912   -9.7881 H         1 UNK         0.0806 
    114 H114       25.4298    0.3533   -9.6337 H         1 UNK         0.0806 
    115 H115       27.2940    2.6888   -8.1206 H         1 UNK         0.3000 
    116 H116       29.4852    2.8414   -8.2855 H         1 UNK         0.0850 
    117 H117       30.5290    4.4569   -9.8348 H         1 UNK         0.0810 
    118 H118       29.0621    5.1493   -9.1622 H         1 UNK         0.0810 
    119 H119       29.0713    4.5286  -10.8128 H         1 UNK         0.0810 
    120 H120       28.3628    0.5126   -9.1337 H         1 UNK         0.3040 
    121 H121       29.5061   -0.2781  -11.7468 H         1 UNK         0.0766 
    122 H122       27.0991   -0.6610  -11.2896 H         1 UNK         0.0812 
    123 H123       27.4955   -1.6400   -9.8777 H         1 UNK         0.0812 
    124 H124       27.9309   -2.1923  -11.4890 H         1 UNK         0.0812 
    125 H125       30.6567   -0.4504   -8.5587 H         1 UNK         0.3205 
    126 H126       32.4273   -2.7096   -9.2116 H         1 UNK         0.0754 
    127 H127       31.9380   -3.7284   -6.9154 H         1 UNK         0.0769 
    128 H128       30.6103   -3.8839   -8.0583 H         1 UNK         0.0769 
    129 H129       30.5454   -2.6589   -6.7975 H         1 UNK         0.0769 
    130 H130       34.3559   -2.6352   -8.1869 H         1 UNK         0.2981 
    131 H131       36.2088   -1.7011   -7.5236 H         1 UNK         0.0541 
    132 H132       36.4874    0.9982   -5.9656 H         1 UNK         0.3459 
    133 H133       36.3922    2.1325   -7.2870 H         1 UNK         0.3459 
    134 H134       34.6244   -0.7116   -5.1170 H         1 UNK         0.0612 
    135 H135       36.3634   -0.8010   -5.1915 H         1 UNK         0.0612 
    136 H136       34.9158   -2.0066   -2.8622 H         1 UNK         0.0624 
    137 H137       34.8889   -3.7507   -2.7952 H         1 UNK         0.0624 
@<TRIPOS>BOND
     1    1    2 1    
     2    1   72 1    
     3    1   73 1    
     4    1   74 1    
     5    2    3 2    
     6    2    4 am   BACKBONE|DICT|INTERRES
     7    4    5 1    
     8    4   75 1    
     9    5    6 1    
    10    5   35 1    
    11    5   76 1    
    12    6    7 1    
    13    6   77 1    
    14    6   78 1    
    15    7    8 1    
    16    8    9 1    
    17    8   79 1    
    18    8   80 1    
    19    9   10 ar   
    20    9   14 ar   
    21   10   11 ar   
    22   10   81 1    
    23   11   12 ar   
    24   11   71 1    
    25   12   13 ar   
    26   12   82 1    
    27   13   14 ar   
    28   13   15 1    
    29   14   83 1    
    30   15   16 1    
    31   15   84 1    
    32   15   85 1    
    33   16   17 1    
    34   17   18 1    
    35   17   86 1    
    36   17   87 1    
    37   18   19 1    
    38   18   37 1    
    39   18   88 1    
    40   19   20 am   BACKBONE|DICT|INTERRES
    41   19   89 1    
    42   20   21 2    
    43   20   22 1    
    44   22   23 1    
    45   22   24 1    
    46   22   90 1    
    47   23   91 1    
    48   23   92 1    
    49   23   93 1    
    50   24   25 am   BACKBONE|DICT|INTERRES
    51   24   94 1    
    52   25   26 2    
    53   25   27 1    
    54   27   28 1    
    55   27   29 1    
    56   27   95 1    
    57   28   96 1    
    58   28   97 1    
    59   28   98 1    
    60   29   30 am   BACKBONE|DICT|INTERRES
    61   29   99 1    
    62   30   31 2    
    63   30   32 1    
    64   32   33 1    
    65   32   34 1    
    66   32  100 1    
    67   33  101 1    
    68   33  102 1    
    69   33  103 1    
    70   34   35 am   BACKBONE|DICT|INTERRES
    71   34  104 1    
    72   35   36 2    
    73   37   38 2    
    74   37   39 am   BACKBONE|DICT|INTERRES
    75   39   40 1    
    76   39  105 1    
    77   40   41 1    
    78   40   42 1    
    79   40  106 1    
    80   41  107 1    
    81   41  108 1    
    82   41  109 1    
    83   42   43 2    
    84   42   44 am   BACKBONE|DICT|INTERRES
    85   44   45 1    
    86   44  110 1    
    87   45   46 1    
    88   45   47 1    
    89   45  111 1    
    90   46  112 1    
    91   46  113 1    
    92   46  114 1    
    93   47   48 2    
    94   47   49 am   BACKBONE|DICT|INTERRES
    95   49   50 1    
    96   49  115 1    
    97   50   51 1    
    98   50   52 1    
    99   50  116 1    
   100   51  117 1    
   101   51  118 1    
   102   51  119 1    
   103   52   53 2    
   104   52   54 am   BACKBONE|DICT|INTERRES
   105   54   55 1    
   106   54  120 1    
   107   55   56 1    
   108   55   57 1    
   109   55  121 1    
   110   56  122 1    
   111   56  123 1    
   112   56  124 1    
   113   57   58 2    
   114   57   59 am   BACKBONE|DICT|INTERRES
   115   59   60 1    
   116   59  125 1    
   117   60   61 1    
   118   60   62 1    
   119   60  126 1    
   120   61  127 1    
   121   61  128 1    
   122   61  129 1    
   123   62   63 2    
   124   62   64 am   BACKBONE|DICT|INTERRES
   125   64   65 1    
   126   64  130 1    
   127   65   66 1    
   128   65   69 1    
   129   65  131 1    
   130   66   67 am   BACKBONE|DICT|INTERRES
   131   66   68 2    
   132   67  132 1    
   133   67  133 1    
   134   69   70 1    
   135   69  134 1    
   136   69  135 1    
   137   70   71 1    
   138   71  136 1    
   139   71  137 1    
@<TRIPOS>SUBSTRUCTURE
     1 UNK         1 GROUP             0       ****    0 ROOT    
