@<TRIPOS>MOLECULE
3R137
137   139    1
SMALL
USER_CHARGES


@<TRIPOS>ATOM
      1 CA         25.6028    1.5318   -0.0164 C.3       0 UNK        -0.2020 
      2 C          26.7352    0.7500    0.6312 C.2       0 UNK         0.4855 
      3 O          27.2344    1.1492    1.6828 O.2       0 UNK        -0.5197 
      4 N          27.1572   -0.3528    0.0032 N.am      1 UNK        -0.4892 
      5 CA         28.2275   -1.2479    0.4691 C.3       1 UNK         0.0835 
      6 C6         27.8603   -2.7360    0.2108 C.3       12 UNK        -0.0855 
      7 S7         27.4801   -3.1221   -1.5373 S.3       12 UNK        -0.2931 
      8 C8         28.8481   -4.2350   -1.9735 C.3       12 UNK         0.0378 
      9 C9         28.8308   -4.5994   -3.4514 C.ar      12 UNK        -0.0802 
     10 C10        29.7441   -4.0100   -4.3309 C.ar      12 UNK        -0.0944 
     11 C11        29.7827   -4.3905   -5.6760 C.ar      12 UNK        -0.0787 
     12 C12        28.8943   -5.3637   -6.1414 C.ar      12 UNK        -0.0862 
     13 C13        27.9716   -5.9583   -5.2741 C.ar      12 UNK        -0.0733 
     14 C14        27.9405   -5.5665   -3.9311 C.ar      12 UNK        -0.0832 
     15 C15        27.0617   -7.0772   -5.7675 C.3       12 UNK         0.0240 
     16 S16        25.3918   -6.4970   -6.2049 S.3       12 UNK        -0.2522 
     17 C17        25.6939   -5.6090   -7.7728 C.3       12 UNK        -0.0967 
     18 CA         25.0297   -4.2103   -7.8086 C.3       5 UNK         0.0660 
     19 N          25.3330   -3.4086   -6.6184 N.am      5 UNK        -0.4015 
     20 C          24.6002   -2.3630   -6.2091 C.2       4 UNK         0.4946 
     21 O          23.6241   -1.9211   -6.8157 O.2       4 UNK        -0.5353 
     22 CA         25.0269   -1.7090   -4.8932 C.3       4 UNK         0.0277 
     23 CB         24.6868   -2.6168   -3.6947 C.3       4 UNK        -0.1981 
     24 N          26.4502   -1.3797   -4.9422 N.am      4 UNK        -0.4209 
     25 C          27.0825   -0.5543   -4.1044 C.2       3 UNK         0.4942 
     26 O          26.5624   -0.0204   -3.1183 O.2       3 UNK        -0.5208 
     27 CA         28.5457   -0.2575   -4.4446 C.3       3 UNK         0.0250 
     28 CB         28.6498    0.7166   -5.6321 C.3       3 UNK        -0.1990 
     29 N          29.1681    0.3068   -3.2590 N.am      3 UNK        -0.4232 
     30 C          30.4660    0.3129   -2.9382 C.2       2 UNK         0.4993 
     31 O          31.3714   -0.0616   -3.6842 O.2       2 UNK        -0.5286 
     32 CA         30.7991    0.7989   -1.5178 C.3       2 UNK         0.0209 
     33 CB         30.9609    2.3273   -1.4946 C.3       2 UNK        -0.1931 
     34 N          29.7476    0.3933   -0.5791 N.am      2 UNK        -0.4546 
     35 C          29.6038   -0.8596   -0.1219 C.2       1 UNK         0.5154 
     36 O          30.5005   -1.7017   -0.1925 O.2       1 UNK        -0.5181 
     37 C          25.3933   -3.4727   -9.1127 C.2       5 UNK         0.5014 
     38 O          24.6567   -3.5780  -10.0951 O.2       5 UNK        -0.5248 
     39 N          26.5249   -2.7544   -9.1027 N.am      6 UNK        -0.4434 
     40 CA         26.9994   -1.9350  -10.2174 C.3       6 UNK         0.0363 
     41 CB         28.5209   -1.7480  -10.0873 C.3       6 UNK        -0.1936 
     42 C          26.3031   -0.5654  -10.2348 C.2       6 UNK         0.5081 
     43 O          25.8509   -0.0869   -9.1930 O.2       6 UNK        -0.5248 
     44 N          26.2891    0.0668  -11.4147 N.am      7 UNK        -0.4718 
     45 CA         25.7936    1.4336  -11.6203 C.3       7 UNK         0.0273 
     46 CB         25.4173    1.6069  -13.1017 C.3       7 UNK        -0.1935 
     47 C          26.7980    2.5214  -11.1862 C.2       7 UNK         0.5018 
     48 O          26.4261    3.6950  -11.1341 O.2       7 UNK        -0.5186 
     49 N          28.0489    2.1256  -10.9111 N.am      8 UNK        -0.4240 
     50 CA         29.1309    2.9847  -10.4282 C.3       8 UNK         0.0235 
     51 CB         30.4474    2.1900  -10.4830 C.3       8 UNK        -0.2000 
     52 C          28.8789    3.4939   -8.9982 C.2       8 UNK         0.4941 
     53 O          28.1765    2.8401   -8.2251 O.2       8 UNK        -0.5273 
     54 N          29.5001    4.6323   -8.6590 N.am      9 UNK        -0.4262 
     55 CA         29.4409    5.2447   -7.3256 C.3       9 UNK         0.0264 
     56 CB         30.0207    6.6673   -7.3921 C.3       9 UNK        -0.1955 
     57 C          30.1563    4.4225   -6.2366 C.2       9 UNK         0.5031 
     58 O          29.7717    4.5051   -5.0694 O.2       9 UNK        -0.5390 
     59 N          31.1694    3.6463   -6.6354 N.am      10 UNK        -0.4204 
     60 CA         31.8925    2.6925   -5.8060 C.3       10 UNK         0.0237 
     61 CB         33.0348    3.3945   -5.0513 C.3       10 UNK        -0.1985 
     62 C          32.4271    1.5875   -6.7227 C.2       10 UNK         0.4970 
     63 O          32.7963    1.8768   -7.8639 O.2       10 UNK        -0.4914 
     64 N          32.4757    0.3608   -6.2025 N.am      11 UNK        -0.4285 
     65 CA         33.0344   -0.8252   -6.8653 C.3       11 UNK         0.1007 
     66 C          33.7358   -1.8076   -5.8868 C.2       11 UNK         0.5703 
     67 N          33.5203   -1.7256   -4.5783 N.am      11 UNK        -0.7361 
     68 O          34.5132   -2.6522   -6.3251 O.2       11 UNK        -0.4986 
     69 C69        32.0185   -1.5345   -7.8065 C.3       12 UNK        -0.0947 
     70 S70        30.4716   -2.0542   -6.9869 S.3       12 UNK        -0.2240 
     71 C71        30.8281   -3.7943   -6.6065 C.3       12 UNK         0.0194 
     72 H72        25.9388    2.5348   -0.2772 H         1 UNK         0.0906 
     73 H73        25.2416    1.0486   -0.9243 H         1 UNK         0.0906 
     74 H74        24.7652    1.6212    0.6747 H         1 UNK         0.0906 
     75 H75        26.7421   -0.6121   -0.8858 H         1 UNK         0.3140 
     76 H76        28.3374   -1.1346    1.5500 H         1 UNK         0.1085 
     77 H77        26.9756   -2.9890    0.7971 H         1 UNK         0.0836 
     78 H78        28.6435   -3.4006    0.5805 H         1 UNK         0.0836 
     79 H79        28.7813   -5.1420   -1.3709 H         1 UNK         0.0731 
     80 H80        29.7967   -3.7632   -1.7145 H         1 UNK         0.0731 
     81 H81        30.4436   -3.2687   -3.9669 H         1 UNK         0.1312 
     82 H82        28.9459   -5.6817   -7.1736 H         1 UNK         0.1406 
     83 H83        27.2402   -6.0329   -3.2510 H         1 UNK         0.1631 
     84 H84        26.9704   -7.8364   -4.9892 H         1 UNK         0.0717 
     85 H85        27.5057   -7.5839   -6.6260 H         1 UNK         0.0717 
     86 H86        26.7659   -5.5299   -7.9512 H         1 UNK         0.0934 
     87 H87        25.3060   -6.2271   -8.5851 H         1 UNK         0.0934 
     88 H88        23.9486   -4.3683   -7.8246 H         1 UNK         0.0739 
     89 H89        26.0634   -3.7645   -6.0184 H         1 UNK         0.3093 
     90 H90        24.4661   -0.7770   -4.7925 H         1 UNK         0.0818 
     91 H91        23.6394   -2.9203   -3.7182 H         1 UNK         0.0819 
     92 H92        25.2908   -3.5248   -3.6886 H         1 UNK         0.0819 
     93 H93        24.8477   -2.1031   -2.7472 H         1 UNK         0.0819 
     94 H94        26.9577   -1.7240   -5.7439 H         1 UNK         0.3041 
     95 H95        29.0354   -1.2022   -4.6809 H         1 UNK         0.0784 
     96 H96        28.0535    0.3822   -6.4822 H         1 UNK         0.0793 
     97 H97        28.3070    1.7180   -5.3688 H         1 UNK         0.0793 
     98 H98        29.6730    0.7937   -5.9888 H         1 UNK         0.0793 
     99 H99        28.4878    0.6024   -2.5707 H         1 UNK         0.3024 
    100 H100       31.7464    0.3432   -1.2195 H         1 UNK         0.1171 
    101 H101       31.2289    2.6823   -0.4994 H         1 UNK         0.0786 
    102 H102       31.7526    2.6438   -2.1754 H         1 UNK         0.0786 
    103 H103       30.0473    2.8393   -1.8002 H         1 UNK         0.0786 
    104 H104       28.9876    1.0398   -0.4235 H         1 UNK         0.2977 
    105 H105       27.0517   -2.6922   -8.2459 H         1 UNK         0.3127 
    106 H106       26.7882   -2.4553  -11.1545 H         1 UNK         0.0770 
    107 H107       29.0353   -2.7032   -9.9791 H         1 UNK         0.0814 
    108 H108       28.7774   -1.1288   -9.2268 H         1 UNK         0.0814 
    109 H109       28.9341   -1.2602  -10.9707 H         1 UNK         0.0814 
    110 H110       26.6803   -0.3970  -12.2232 H         1 UNK         0.2983 
    111 H111       24.8912    1.5733  -11.0205 H         1 UNK         0.0947 
    112 H112       25.0053    2.5999  -13.2871 H         1 UNK         0.0806 
    113 H113       24.6605    0.8838  -13.4067 H         1 UNK         0.0806 
    114 H114       26.2819    1.4865  -13.7557 H         1 UNK         0.0806 
    115 H115       28.2425    1.1376  -10.9541 H         1 UNK         0.3000 
    116 H116       29.2041    3.8438  -11.0986 H         1 UNK         0.0850 
    117 H117       31.2953    2.8096  -10.1885 H         1 UNK         0.0810 
    118 H118       30.6523    1.8261  -11.4900 H         1 UNK         0.0810 
    119 H119       30.4282    1.3295   -9.8119 H         1 UNK         0.0810 
    120 H120       30.0591    5.1099   -9.3521 H         1 UNK         0.3040 
    121 H121       28.3897    5.3181   -7.0381 H         1 UNK         0.0766 
    122 H122       29.4687    7.2894   -8.0970 H         1 UNK         0.0812 
    123 H123       31.0690    6.6640   -7.6935 H         1 UNK         0.0812 
    124 H124       29.9639    7.1565   -6.4186 H         1 UNK         0.0812 
    125 H125       31.4119    3.6099   -7.6173 H         1 UNK         0.3205 
    126 H126       31.2033    2.2579   -5.0811 H         1 UNK         0.0754 
    127 H127       32.6539    4.1755   -4.3929 H         1 UNK         0.0769 
    128 H128       33.7489    3.8524   -5.7370 H         1 UNK         0.0769 
    129 H129       33.5832    2.6858   -4.4293 H         1 UNK         0.0769 
    130 H130       32.1133    0.2062   -5.2630 H         1 UNK         0.2981 
    131 H131       33.8498   -0.4726   -7.4999 H         1 UNK         0.0541 
    132 H132       32.8284   -1.0901   -4.1936 H         1 UNK         0.3459 
    133 H133       34.0012   -2.3651   -3.9669 H         1 UNK         0.3459 
    134 H134       31.7421   -0.8530   -8.6121 H         1 UNK         0.0612 
    135 H135       32.4779   -2.3935   -8.2987 H         1 UNK         0.0612 
    136 H136       31.8057   -3.8800   -6.1329 H         1 UNK         0.0624 
    137 H137       30.8871   -4.3559   -7.5400 H         1 UNK         0.0624 
@<TRIPOS>BOND
     1    1    2 1    
     2    1   72 1    
     3    1   73 1    
     4    1   74 1    
     5    2    3 2    
     6    2    4 am   BACKBONE|DICT|INTERRES
     7    4    5 1    
     8    4   75 1    
     9    5    6 1    
    10    5   35 1    
    11    5   76 1    
    12    6    7 1    
    13    6   77 1    
    14    6   78 1    
    15    7    8 1    
    16    8    9 1    
    17    8   79 1    
    18    8   80 1    
    19    9   10 ar   
    20    9   14 ar   
    21   10   11 ar   
    22   10   81 1    
    23   11   12 ar   
    24   11   71 1    
    25   12   13 ar   
    26   12   82 1    
    27   13   14 ar   
    28   13   15 1    
    29   14   83 1    
    30   15   16 1    
    31   15   84 1    
    32   15   85 1    
    33   16   17 1    
    34   17   18 1    
    35   17   86 1    
    36   17   87 1    
    37   18   19 1    
    38   18   37 1    
    39   18   88 1    
    40   19   20 am   BACKBONE|DICT|INTERRES
    41   19   89 1    
    42   20   21 2    
    43   20   22 1    
    44   22   23 1    
    45   22   24 1    
    46   22   90 1    
    47   23   91 1    
    48   23   92 1    
    49   23   93 1    
    50   24   25 am   BACKBONE|DICT|INTERRES
    51   24   94 1    
    52   25   26 2    
    53   25   27 1    
    54   27   28 1    
    55   27   29 1    
    56   27   95 1    
    57   28   96 1    
    58   28   97 1    
    59   28   98 1    
    60   29   30 am   BACKBONE|DICT|INTERRES
    61   29   99 1    
    62   30   31 2    
    63   30   32 1    
    64   32   33 1    
    65   32   34 1    
    66   32  100 1    
    67   33  101 1    
    68   33  102 1    
    69   33  103 1    
    70   34   35 am   BACKBONE|DICT|INTERRES
    71   34  104 1    
    72   35   36 2    
    73   37   38 2    
    74   37   39 am   BACKBONE|DICT|INTERRES
    75   39   40 1    
    76   39  105 1    
    77   40   41 1    
    78   40   42 1    
    79   40  106 1    
    80   41  107 1    
    81   41  108 1    
    82   41  109 1    
    83   42   43 2    
    84   42   44 am   BACKBONE|DICT|INTERRES
    85   44   45 1    
    86   44  110 1    
    87   45   46 1    
    88   45   47 1    
    89   45  111 1    
    90   46  112 1    
    91   46  113 1    
    92   46  114 1    
    93   47   48 2    
    94   47   49 am   BACKBONE|DICT|INTERRES
    95   49   50 1    
    96   49  115 1    
    97   50   51 1    
    98   50   52 1    
    99   50  116 1    
   100   51  117 1    
   101   51  118 1    
   102   51  119 1    
   103   52   53 2    
   104   52   54 am   BACKBONE|DICT|INTERRES
   105   54   55 1    
   106   54  120 1    
   107   55   56 1    
   108   55   57 1    
   109   55  121 1    
   110   56  122 1    
   111   56  123 1    
   112   56  124 1    
   113   57   58 2    
   114   57   59 am   BACKBONE|DICT|INTERRES
   115   59   60 1    
   116   59  125 1    
   117   60   61 1    
   118   60   62 1    
   119   60  126 1    
   120   61  127 1    
   121   61  128 1    
   122   61  129 1    
   123   62   63 2    
   124   62   64 am   BACKBONE|DICT|INTERRES
   125   64   65 1    
   126   64  130 1    
   127   65   66 1    
   128   65   69 1    
   129   65  131 1    
   130   66   67 am   BACKBONE|DICT|INTERRES
   131   66   68 2    
   132   67  132 1    
   133   67  133 1    
   134   69   70 1    
   135   69  134 1    
   136   69  135 1    
   137   70   71 1    
   138   71  136 1    
   139   71  137 1    
@<TRIPOS>SUBSTRUCTURE
     1 UNK         1 GROUP             0       ****    0 ROOT    
