@<TRIPOS>MOLECULE
3R137
137   139    1
SMALL
USER_CHARGES


@<TRIPOS>ATOM
      1 CA         26.5781   -6.6759   -5.1529 C.3       0 UNK        -0.2020 
      2 C          26.1308   -5.8285   -3.9722 C.2       0 UNK         0.4855 
      3 O          25.0214   -5.2946   -3.9910 O.2       0 UNK        -0.5197 
      4 N          26.9887   -5.6992   -2.9502 N.am      1 UNK        -0.4892 
      5 CA         26.7826   -4.8893   -1.7434 C.3       1 UNK         0.0835 
      6 C6         27.9614   -4.9737   -0.7228 C.3       12 UNK        -0.0855 
      7 S7         29.6807   -5.2705   -1.3089 S.3       12 UNK        -0.2931 
      8 C8         29.9195   -4.2949   -2.8335 C.3       12 UNK         0.0378 
      9 C9         30.5111   -2.9059   -2.6205 C.ar      12 UNK        -0.0802 
     10 C10        31.5544   -2.4737   -3.4449 C.ar      12 UNK        -0.0944 
     11 C11        32.0734   -1.1825   -3.3220 C.ar      12 UNK        -0.0787 
     12 C12        31.5522   -0.3186   -2.3558 C.ar      12 UNK        -0.0862 
     13 C13        30.5001   -0.7312   -1.5337 C.ar      12 UNK        -0.0733 
     14 C14        29.9871   -2.0258   -1.6683 C.ar      12 UNK        -0.0832 
     15 C15        29.8998    0.2315   -0.5185 C.3       12 UNK         0.0240 
     16 S16        28.9737    1.5849   -1.3167 S.3       12 UNK        -0.2522 
     17 C17        27.7241    0.6733   -2.2828 C.3       12 UNK        -0.0967 
     18 CA         27.9773    0.7732   -3.8118 C.3       5 UNK         0.0660 
     19 N          27.6055   -0.4599   -4.5145 N.am      5 UNK        -0.4015 
     20 C          27.7728   -0.6833   -5.8271 C.2       4 UNK         0.4946 
     21 O          28.3332    0.0988   -6.5951 O.2       4 UNK        -0.5353 
     22 CA         27.1490   -1.9671   -6.3987 C.3       4 UNK         0.0277 
     23 CB         28.0988   -3.1646   -6.2632 C.3       4 UNK        -0.1981 
     24 N          25.8578   -2.2753   -5.7794 N.am      4 UNK        -0.4209 
     25 C          24.7446   -1.5559   -5.9811 C.2       3 UNK         0.4942 
     26 O          24.6745   -0.6076   -6.7624 O.2       3 UNK        -0.5208 
     27 CA         23.5206   -1.9210   -5.1271 C.3       3 UNK         0.0250 
     28 CB         22.7865   -3.1391   -5.7090 C.3       3 UNK        -0.1990 
     29 N          23.8745   -2.1664   -3.7258 N.am      3 UNK        -0.4232 
     30 C          24.3189   -1.2132   -2.8927 C.2       2 UNK         0.4993 
     31 O          24.4509   -0.0340   -3.2168 O.2       2 UNK        -0.5286 
     32 CA         24.7218   -1.6351   -1.4691 C.3       2 UNK         0.0209 
     33 CB         23.5208   -1.5133   -0.5179 C.3       2 UNK        -0.1931 
     34 N          25.2900   -2.9827   -1.3653 N.am      2 UNK        -0.4546 
     35 C          26.3598   -3.4318   -2.0372 C.2       1 UNK         0.5154 
     36 O          26.9820   -2.7539   -2.8580 O.2       1 UNK        -0.5181 
     37 C          27.2819    2.0145   -4.4135 C.2       5 UNK         0.5014 
     38 O          27.9476    3.0134   -4.6895 O.2       5 UNK        -0.5248 
     39 N          25.9605    1.9143   -4.6273 N.am      6 UNK        -0.4434 
     40 CA         25.1300    2.9426   -5.2561 C.3       6 UNK         0.0363 
     41 CB         23.6460    2.5799   -5.0874 C.3       6 UNK        -0.1936 
     42 C          25.4651    3.1692   -6.7396 C.2       6 UNK         0.5081 
     43 O          25.4573    4.3175   -7.1846 O.2       6 UNK        -0.5248 
     44 N          25.7553    2.0865   -7.4773 N.am      7 UNK        -0.4718 
     45 CA         26.1817    2.1355   -8.8798 C.3       7 UNK         0.0273 
     46 CB         26.1771    0.7196   -9.4779 C.3       7 UNK        -0.1935 
     47 C          27.5610    2.7894   -9.0640 C.2       7 UNK         0.5018 
     48 O          27.7662    3.4866  -10.0586 O.2       7 UNK        -0.5186 
     49 N          28.4767    2.5430   -8.1149 N.am      8 UNK        -0.4240 
     50 CA         29.8442    3.0652   -7.9798 C.3       8 UNK         0.0235 
     51 CB         29.8564    4.6010   -7.8620 C.3       8 UNK        -0.2000 
     52 C          30.8255    2.5787   -9.0593 C.2       8 UNK         0.4941 
     53 O          31.9393    2.1823   -8.7206 O.2       8 UNK        -0.5273 
     54 N          30.3991    2.5624  -10.3294 N.am      9 UNK        -0.4262 
     55 CA         31.1503    2.0359  -11.4759 C.3       9 UNK         0.0264 
     56 CB         30.3599    2.3027  -12.7663 C.3       9 UNK        -0.1955 
     57 C          31.4867    0.5385  -11.3476 C.2       9 UNK         0.5031 
     58 O          32.5137    0.0976  -11.8658 O.2       9 UNK        -0.5390 
     59 N          30.6441   -0.2004  -10.6115 N.am      10 UNK        -0.4204 
     60 CA         30.8351   -1.6005  -10.2291 C.3       10 UNK         0.0237 
     61 CB         29.5728   -2.0874   -9.4994 C.3       10 UNK        -0.1985 
     62 C          32.0878   -1.8531   -9.3658 C.2       10 UNK         0.4970 
     63 O          32.5750   -2.9840   -9.3493 O.2       10 UNK        -0.4914 
     64 N          32.5945   -0.8163   -8.6833 N.am      11 UNK        -0.4285 
     65 CA         33.8514   -0.8555   -7.9206 C.3       11 UNK         0.1007 
     66 C          35.1292   -0.7912   -8.8089 C.2       11 UNK         0.5703 
     67 N          35.0354   -0.5377  -10.1107 N.am      11 UNK        -0.7361 
     68 O          36.2329   -0.9884   -8.3060 O.2       11 UNK        -0.4986 
     69 C69        33.8907    0.2267   -6.8080 C.3       12 UNK        -0.0947 
     70 S70        32.4500    0.1429   -5.6927 S.3       12 UNK        -0.2240 
     71 C71        33.1701   -0.7127   -4.2613 C.3       12 UNK         0.0194 
     72 H72        26.4801   -6.1100   -6.0788 H         1 UNK         0.0906 
     73 H73        27.6166   -6.9929   -5.0583 H         1 UNK         0.0906 
     74 H74        25.9551   -7.5664   -5.2313 H         1 UNK         0.0906 
     75 H75        27.8828   -6.1677   -2.9915 H         1 UNK         0.3140 
     76 H76        25.9221   -5.3528   -1.2553 H         1 UNK         0.1085 
     77 H77        27.7513   -5.8086   -0.0521 H         1 UNK         0.0836 
     78 H78        27.9732   -4.1069   -0.0593 H         1 UNK         0.0836 
     79 H79        28.9912   -4.1934   -3.3784 H         1 UNK         0.0731 
     80 H80        30.5754   -4.8773   -3.4824 H         1 UNK         0.0731 
     81 H81        31.9493   -3.1337   -4.2054 H         1 UNK         0.1312 
     82 H82        31.9407    0.6868   -2.2667 H         1 UNK         0.1406 
     83 H83        29.1618   -2.3414   -1.0480 H         1 UNK         0.1631 
     84 H84        30.6989    0.6594    0.0885 H         1 UNK         0.0717 
     85 H85        29.2386   -0.2937    0.1727 H         1 UNK         0.0717 
     86 H86        27.7370   -0.3670   -1.9607 H         1 UNK         0.0934 
     87 H87        26.7335    1.0402   -2.0070 H         1 UNK         0.0934 
     88 H88        29.0505    0.8868   -3.9832 H         1 UNK         0.0739 
     89 H89        27.2029   -1.2035   -3.9502 H         1 UNK         0.3093 
     90 H90        26.9815   -1.7985   -7.4642 H         1 UNK         0.0818 
     91 H91        28.1600   -3.5026   -5.2334 H         1 UNK         0.0819 
     92 H92        27.7634   -4.0044   -6.8715 H         1 UNK         0.0819 
     93 H93        29.1099   -2.9116   -6.5847 H         1 UNK         0.0819 
     94 H94        25.8402   -3.0077   -5.0819 H         1 UNK         0.3041 
     95 H95        22.8353   -1.0708   -5.1542 H         1 UNK         0.0784 
     96 H96        22.4791   -2.9511   -6.7387 H         1 UNK         0.0793 
     97 H97        23.4153   -4.0298   -5.7159 H         1 UNK         0.0793 
     98 H98        21.8857   -3.3689   -5.1397 H         1 UNK         0.0793 
     99 H99        23.8394   -3.1238   -3.4013 H         1 UNK         0.3024 
    100 H100       25.4879   -0.9352   -1.1321 H         1 UNK         0.1171 
    101 H101       23.8121   -1.6962    0.5167 H         1 UNK         0.0786 
    102 H102       23.0915   -0.5109   -0.5577 H         1 UNK         0.0786 
    103 H103       22.7282   -2.2174   -0.7746 H         1 UNK         0.0786 
    104 H104       24.8281   -3.6074   -0.7197 H         1 UNK         0.2977 
    105 H105       25.4733    1.0819   -4.2993 H         1 UNK         0.3127 
    106 H106       25.3120    3.8820   -4.7298 H         1 UNK         0.0770 
    107 H107       23.4075    1.6275   -5.5627 H         1 UNK         0.0814 
    108 H108       23.0039    3.3396   -5.5350 H         1 UNK         0.0814 
    109 H109       23.3740    2.5041   -4.0345 H         1 UNK         0.0814 
    110 H110       25.6619    1.1672   -7.0564 H         1 UNK         0.2983 
    111 H111       25.4557    2.7397   -9.4282 H         1 UNK         0.0947 
    112 H112       26.4426    0.7419  -10.5357 H         1 UNK         0.0806 
    113 H113       25.1919    0.2593   -9.4010 H         1 UNK         0.0806 
    114 H114       26.8915    0.0670   -8.9765 H         1 UNK         0.0806 
    115 H115       28.2227    1.8610   -7.4029 H         1 UNK         0.3000 
    116 H116       30.2066    2.6634   -7.0315 H         1 UNK         0.0850 
    117 H117       30.8639    4.9664   -7.6592 H         1 UNK         0.0810 
    118 H118       29.2183    4.9365   -7.0440 H         1 UNK         0.0810 
    119 H119       29.5133    5.0859   -8.7762 H         1 UNK         0.0810 
    120 H120       29.4644    2.9268  -10.5052 H         1 UNK         0.3040 
    121 H121       32.0956    2.5798  -11.5296 H         1 UNK         0.0766 
    122 H122       30.1896    3.3694  -12.9136 H         1 UNK         0.0812 
    123 H123       29.3885    1.8066  -12.7553 H         1 UNK         0.0812 
    124 H124       30.9033    1.9389  -13.6396 H         1 UNK         0.0812 
    125 H125       29.8359    0.2643  -10.2256 H         1 UNK         0.3205 
    126 H126       30.9513   -2.1811  -11.1465 H         1 UNK         0.0754 
    127 H127       29.6683   -3.1330   -9.2031 H         1 UNK         0.0769 
    128 H128       28.6899   -2.0117  -10.1345 H         1 UNK         0.0769 
    129 H129       29.3877   -1.5059   -8.5958 H         1 UNK         0.0769 
    130 H130       32.1579    0.0960   -8.7484 H         1 UNK         0.2981 
    131 H131       33.8953   -1.8236   -7.4180 H         1 UNK         0.0541 
    132 H132       34.1379   -0.3746  -10.5501 H         1 UNK         0.3459 
    133 H133       35.8760   -0.5066  -10.6651 H         1 UNK         0.3459 
    134 H134       34.8027    0.1377   -6.2149 H         1 UNK         0.0612 
    135 H135       33.9182    1.2241   -7.2487 H         1 UNK         0.0612 
    136 H136       33.8555   -0.0415   -3.7416 H         1 UNK         0.0624 
    137 H137       33.7619   -1.5633   -4.6034 H         1 UNK         0.0624 
@<TRIPOS>BOND
     1    1    2 1    
     2    1   72 1    
     3    1   73 1    
     4    1   74 1    
     5    2    3 2    
     6    2    4 am   BACKBONE|DICT|INTERRES
     7    4    5 1    
     8    4   75 1    
     9    5    6 1    
    10    5   35 1    
    11    5   76 1    
    12    6    7 1    
    13    6   77 1    
    14    6   78 1    
    15    7    8 1    
    16    8    9 1    
    17    8   79 1    
    18    8   80 1    
    19    9   10 ar   
    20    9   14 ar   
    21   10   11 ar   
    22   10   81 1    
    23   11   12 ar   
    24   11   71 1    
    25   12   13 ar   
    26   12   82 1    
    27   13   14 ar   
    28   13   15 1    
    29   14   83 1    
    30   15   16 1    
    31   15   84 1    
    32   15   85 1    
    33   16   17 1    
    34   17   18 1    
    35   17   86 1    
    36   17   87 1    
    37   18   19 1    
    38   18   37 1    
    39   18   88 1    
    40   19   20 am   BACKBONE|DICT|INTERRES
    41   19   89 1    
    42   20   21 2    
    43   20   22 1    
    44   22   23 1    
    45   22   24 1    
    46   22   90 1    
    47   23   91 1    
    48   23   92 1    
    49   23   93 1    
    50   24   25 am   BACKBONE|DICT|INTERRES
    51   24   94 1    
    52   25   26 2    
    53   25   27 1    
    54   27   28 1    
    55   27   29 1    
    56   27   95 1    
    57   28   96 1    
    58   28   97 1    
    59   28   98 1    
    60   29   30 am   BACKBONE|DICT|INTERRES
    61   29   99 1    
    62   30   31 2    
    63   30   32 1    
    64   32   33 1    
    65   32   34 1    
    66   32  100 1    
    67   33  101 1    
    68   33  102 1    
    69   33  103 1    
    70   34   35 am   BACKBONE|DICT|INTERRES
    71   34  104 1    
    72   35   36 2    
    73   37   38 2    
    74   37   39 am   BACKBONE|DICT|INTERRES
    75   39   40 1    
    76   39  105 1    
    77   40   41 1    
    78   40   42 1    
    79   40  106 1    
    80   41  107 1    
    81   41  108 1    
    82   41  109 1    
    83   42   43 2    
    84   42   44 am   BACKBONE|DICT|INTERRES
    85   44   45 1    
    86   44  110 1    
    87   45   46 1    
    88   45   47 1    
    89   45  111 1    
    90   46  112 1    
    91   46  113 1    
    92   46  114 1    
    93   47   48 2    
    94   47   49 am   BACKBONE|DICT|INTERRES
    95   49   50 1    
    96   49  115 1    
    97   50   51 1    
    98   50   52 1    
    99   50  116 1    
   100   51  117 1    
   101   51  118 1    
   102   51  119 1    
   103   52   53 2    
   104   52   54 am   BACKBONE|DICT|INTERRES
   105   54   55 1    
   106   54  120 1    
   107   55   56 1    
   108   55   57 1    
   109   55  121 1    
   110   56  122 1    
   111   56  123 1    
   112   56  124 1    
   113   57   58 2    
   114   57   59 am   BACKBONE|DICT|INTERRES
   115   59   60 1    
   116   59  125 1    
   117   60   61 1    
   118   60   62 1    
   119   60  126 1    
   120   61  127 1    
   121   61  128 1    
   122   61  129 1    
   123   62   63 2    
   124   62   64 am   BACKBONE|DICT|INTERRES
   125   64   65 1    
   126   64  130 1    
   127   65   66 1    
   128   65   69 1    
   129   65  131 1    
   130   66   67 am   BACKBONE|DICT|INTERRES
   131   66   68 2    
   132   67  132 1    
   133   67  133 1    
   134   69   70 1    
   135   69  134 1    
   136   69  135 1    
   137   70   71 1    
   138   71  136 1    
   139   71  137 1    
@<TRIPOS>SUBSTRUCTURE
     1 UNK         1 GROUP             0       ****    0 ROOT    
