@<TRIPOS>MOLECULE
3R137
137   139    1
SMALL
USER_CHARGES


@<TRIPOS>ATOM
      1 CA         23.6561   -4.7850   -2.1010 C.3       0 UNK        -0.2020 
      2 C          24.3878   -3.5191   -1.6829 C.2       0 UNK         0.4855 
      3 O          23.7614   -2.5967   -1.1605 O.2       0 UNK        -0.5197 
      4 N          25.7069   -3.4618   -1.9142 N.am      1 UNK        -0.4892 
      5 CA         26.5769   -2.3202   -1.6081 C.3       1 UNK         0.0835 
      6 C6         28.0644   -2.6687   -1.8621 C.3       12 UNK        -0.0855 
      7 S7         29.2035   -1.6378   -0.8784 S.3       12 UNK        -0.2931 
      8 C8         30.7229   -2.6485   -0.9111 C.3       12 UNK         0.0378 
      9 C9         31.2756   -2.7639   -2.3236 C.ar      12 UNK        -0.0802 
     10 C10        31.9949   -1.7010   -2.8795 C.ar      12 UNK        -0.0944 
     11 C11        32.4182   -1.7503   -4.2103 C.ar      12 UNK        -0.0787 
     12 C12        32.1565   -2.8940   -4.9689 C.ar      12 UNK        -0.0862 
     13 C13        31.4083   -3.9494   -4.4350 C.ar      12 UNK        -0.0733 
     14 C14        30.9976   -3.8939   -3.1007 C.ar      12 UNK        -0.0832 
     15 C15        30.9039   -5.0602   -5.3536 C.3       12 UNK         0.0240 
     16 S16        29.2096   -4.7205   -5.9859 S.3       12 UNK        -0.2522 
     17 C17        29.2768   -2.9104   -6.1904 C.3       12 UNK        -0.0967 
     18 CA         28.1190   -2.1986   -6.9168 C.3       5 UNK         0.0660 
     19 N          26.8072   -2.6018   -6.4029 N.am      5 UNK        -0.4015 
     20 C          25.6227   -2.0254   -6.6524 C.2       4 UNK         0.4946 
     21 O          25.4840   -0.9686   -7.2704 O.2       4 UNK        -0.5353 
     22 CA         24.3721   -2.7488   -6.1345 C.3       4 UNK         0.0277 
     23 CB         24.6283   -4.1698   -5.5873 C.3       4 UNK        -0.1981 
     24 N          23.7471   -1.9279   -5.1024 N.am      4 UNK        -0.4209 
     25 C          22.4269   -1.7430   -4.9622 C.2       3 UNK         0.4942 
     26 O          21.5897   -2.2566   -5.7063 O.2       3 UNK        -0.5208 
     27 CA         21.9338   -0.8624   -3.7962 C.3       3 UNK         0.0250 
     28 CB         20.9351   -1.6275   -2.9093 C.3       3 UNK        -0.1990 
     29 N          23.0268   -0.3646   -2.9578 N.am      3 UNK        -0.4232 
     30 C          23.6801    0.7866   -3.1677 C.2       2 UNK         0.4993 
     31 O          23.3773    1.5921   -4.0468 O.2       2 UNK        -0.5286 
     32 CA         24.8883    1.0916   -2.2642 C.3       2 UNK         0.0209 
     33 CB         24.4817    2.0397   -1.1248 C.3       2 UNK        -0.1931 
     34 N          25.5261   -0.1010   -1.6928 N.am      2 UNK        -0.4546 
     35 C          26.1273   -1.0714   -2.3957 C.2       1 UNK         0.5154 
     36 O          26.2684   -1.0412   -3.6213 O.2       1 UNK        -0.5181 
     37 C          28.4301   -0.6931   -6.8174 C.2       5 UNK         0.5014 
     38 O          28.9864   -0.1256   -7.7599 O.2       5 UNK        -0.5248 
     39 N          28.1402   -0.0932   -5.6541 N.am      6 UNK        -0.4434 
     40 CA         28.5592    1.2675   -5.3180 C.3       6 UNK         0.0363 
     41 CB         28.6872    1.4175   -3.7946 C.3       6 UNK        -0.1936 
     42 C          27.6682    2.3522   -5.9445 C.2       6 UNK         0.5081 
     43 O          28.0608    3.5182   -5.9288 O.2       6 UNK        -0.5248 
     44 N          26.5287    1.9648   -6.5391 N.am      7 UNK        -0.4718 
     45 CA         25.7360    2.8381   -7.4102 C.3       7 UNK         0.0273 
     46 CB         24.3388    2.2353   -7.6244 C.3       7 UNK        -0.1935 
     47 C          26.4386    3.0761   -8.7596 C.2       7 UNK         0.5018 
     48 O          26.3581    4.1801   -9.2988 O.2       7 UNK        -0.5186 
     49 N          27.1329    2.0444   -9.2620 N.am      8 UNK        -0.4240 
     50 CA         27.9695    2.1032  -10.4632 C.3       8 UNK         0.0235 
     51 CB         27.9550    0.7224  -11.1411 C.3       8 UNK        -0.2000 
     52 C          29.4190    2.5240  -10.1571 C.2       8 UNK         0.4941 
     53 O          30.1216    2.9442  -11.0766 O.2       8 UNK        -0.5273 
     54 N          29.8414    2.3707   -8.8916 N.am      9 UNK        -0.4262 
     55 CA         31.2098    2.4932   -8.3720 C.3       9 UNK         0.0264 
     56 CB         31.7464    3.9325   -8.5205 C.3       9 UNK        -0.1955 
     57 C          32.1398    1.4251   -8.9794 C.2       9 UNK         0.5031 
     58 O          33.2667    1.7331   -9.3727 O.2       9 UNK        -0.5390 
     59 N          31.6358    0.1831   -9.0570 N.am      10 UNK        -0.4204 
     60 CA         32.2351   -0.9345   -9.7980 C.3       10 UNK         0.0237 
     61 CB         31.2878   -2.1437   -9.7431 C.3       10 UNK        -0.1985 
     62 C          33.6553   -1.3450   -9.3628 C.2       10 UNK         0.4970 
     63 O          34.4002   -1.8671  -10.1931 O.2       10 UNK        -0.4914 
     64 N          34.0067   -1.1066   -8.0925 N.am      11 UNK        -0.4285 
     65 CA         35.3554   -1.3271   -7.5462 C.3       11 UNK         0.1007 
     66 C          36.3652   -0.1749   -7.8322 C.2       11 UNK         0.5703 
     67 N          35.9663    0.9347   -8.4454 N.am      11 UNK        -0.7361 
     68 O          37.5441   -0.3001   -7.5087 O.2       11 UNK        -0.4986 
     69 C69        35.3200   -1.7656   -6.0544 C.3       12 UNK        -0.0947 
     70 S70        34.8393   -0.4768   -4.8495 S.3       12 UNK        -0.2240 
     71 C71        33.0204   -0.5150   -4.8674 C.3       12 UNK         0.0194 
     72 H72        24.3325   -5.5301   -2.5191 H         1 UNK         0.0906 
     73 H73        22.9021   -4.5511   -2.8518 H         1 UNK         0.0906 
     74 H74        23.1540   -5.2278   -1.2413 H         1 UNK         0.0906 
     75 H75        26.1623   -4.2503   -2.3505 H         1 UNK         0.3140 
     76 H76        26.4543   -2.1204   -0.5411 H         1 UNK         0.1085 
     77 H77        28.3236   -2.5962   -2.9203 H         1 UNK         0.0836 
     78 H78        28.2496   -3.7065   -1.5803 H         1 UNK         0.0836 
     79 H79        31.4698   -2.1889   -0.2622 H         1 UNK         0.0731 
     80 H80        30.5186   -3.6348   -0.4913 H         1 UNK         0.0731 
     81 H81        32.1689   -0.8094   -2.2924 H         1 UNK         0.1312 
     82 H82        32.4383   -2.9187   -6.0122 H         1 UNK         0.1406 
     83 H83        30.3964   -4.6954   -2.6932 H         1 UNK         0.1631 
     84 H84        30.9057   -6.0143   -4.8247 H         1 UNK         0.0717 
     85 H85        31.5796   -5.1799   -6.2019 H         1 UNK         0.0717 
     86 H86        29.3752   -2.4978   -5.1837 H         1 UNK         0.0934 
     87 H87        30.2027   -2.6813   -6.7160 H         1 UNK         0.0934 
     88 H88        28.1433   -2.4739   -7.9728 H         1 UNK         0.0739 
     89 H89        26.8080   -3.4611   -5.8739 H         1 UNK         0.3093 
     90 H90        23.7042   -2.8337   -6.9944 H         1 UNK         0.0818 
     91 H91        25.0928   -4.8075   -6.3409 H         1 UNK         0.0819 
     92 H92        25.2723   -4.1621   -4.7083 H         1 UNK         0.0819 
     93 H93        23.6916   -4.6504   -5.3047 H         1 UNK         0.0819 
     94 H94        24.3885   -1.4295   -4.4950 H         1 UNK         0.3041 
     95 H95        21.4029   -0.0173   -4.2394 H         1 UNK         0.0784 
     96 H96        20.0645   -1.9469   -3.4837 H         1 UNK         0.0793 
     97 H97        21.3810   -2.5210   -2.4726 H         1 UNK         0.0793 
     98 H98        20.5702   -1.0029   -2.0938 H         1 UNK         0.0793 
     99 H99        23.3409   -0.9842   -2.2147 H         1 UNK         0.3024 
    100 H100       25.6153    1.6083   -2.8908 H         1 UNK         0.1171 
    101 H101       24.0230    2.9485   -1.5175 H         1 UNK         0.0786 
    102 H102       23.7602    1.5756   -0.4511 H         1 UNK         0.0786 
    103 H103       25.3461    2.3452   -0.5349 H         1 UNK         0.0786 
    104 H104       25.4194   -0.2276   -0.6962 H         1 UNK         0.2977 
    105 H105       27.6072   -0.5970   -4.9483 H         1 UNK         0.3127 
    106 H106       29.5594    1.4204   -5.7274 H         1 UNK         0.0770 
    107 H107       27.7411    1.2568   -3.2875 H         1 UNK         0.0814 
    108 H108       29.0349    2.4161   -3.5269 H         1 UNK         0.0814 
    109 H109       29.4054    0.7050   -3.3874 H         1 UNK         0.0814 
    110 H110       26.2677    0.9851   -6.5147 H         1 UNK         0.2983 
    111 H111       25.6177    3.8057   -6.9169 H         1 UNK         0.0947 
    112 H112       24.3824    1.2832   -8.1539 H         1 UNK         0.0806 
    113 H113       23.7133    2.9062   -8.2146 H         1 UNK         0.0806 
    114 H114       23.8285    2.0674   -6.6763 H         1 UNK         0.0806 
    115 H115       27.1351    1.1719   -8.7506 H         1 UNK         0.3000 
    116 H116       27.5533    2.8324  -11.1619 H         1 UNK         0.0850 
    117 H117       28.5513    0.7291  -12.0546 H         1 UNK         0.0810 
    118 H118       26.9428    0.4276  -11.4185 H         1 UNK         0.0810 
    119 H119       28.3639   -0.0524  -10.4913 H         1 UNK         0.0810 
    120 H120       29.1842    1.9378   -8.2561 H         1 UNK         0.3040 
    121 H121       31.1557    2.2757   -7.3050 H         1 UNK         0.0766 
    122 H122       31.8977    4.2063   -9.5649 H         1 UNK         0.0812 
    123 H123       32.7072    4.0425   -8.0163 H         1 UNK         0.0812 
    124 H124       31.0629    4.6572   -8.0782 H         1 UNK         0.0812 
    125 H125       30.7004    0.0313   -8.6871 H         1 UNK         0.3205 
    126 H126       32.3062   -0.6126  -10.8390 H         1 UNK         0.0754 
    127 H127       31.6485   -2.9494  -10.3842 H         1 UNK         0.0769 
    128 H128       30.2851   -1.8846  -10.0841 H         1 UNK         0.0769 
    129 H129       31.2087   -2.5463   -8.7347 H         1 UNK         0.0769 
    130 H130       33.3531   -0.6319   -7.4914 H         1 UNK         0.2981 
    131 H131       35.7743   -2.1818   -8.0807 H         1 UNK         0.0541 
    132 H132       36.6409    1.6606   -8.6252 H         1 UNK         0.3459 
    133 H133       35.0033    1.0646   -8.7394 H         1 UNK         0.3459 
    134 H134       36.3133   -2.1101   -5.7617 H         1 UNK         0.0612 
    135 H135       34.6838   -2.6400   -5.9343 H         1 UNK         0.0612 
    136 H136       32.6506   -0.4183   -5.8870 H         1 UNK         0.0624 
    137 H137       32.6646    0.3772   -4.3497 H         1 UNK         0.0624 
@<TRIPOS>BOND
     1    1    2 1    
     2    1   72 1    
     3    1   73 1    
     4    1   74 1    
     5    2    3 2    
     6    2    4 am   BACKBONE|DICT|INTERRES
     7    4    5 1    
     8    4   75 1    
     9    5    6 1    
    10    5   35 1    
    11    5   76 1    
    12    6    7 1    
    13    6   77 1    
    14    6   78 1    
    15    7    8 1    
    16    8    9 1    
    17    8   79 1    
    18    8   80 1    
    19    9   10 ar   
    20    9   14 ar   
    21   10   11 ar   
    22   10   81 1    
    23   11   12 ar   
    24   11   71 1    
    25   12   13 ar   
    26   12   82 1    
    27   13   14 ar   
    28   13   15 1    
    29   14   83 1    
    30   15   16 1    
    31   15   84 1    
    32   15   85 1    
    33   16   17 1    
    34   17   18 1    
    35   17   86 1    
    36   17   87 1    
    37   18   19 1    
    38   18   37 1    
    39   18   88 1    
    40   19   20 am   BACKBONE|DICT|INTERRES
    41   19   89 1    
    42   20   21 2    
    43   20   22 1    
    44   22   23 1    
    45   22   24 1    
    46   22   90 1    
    47   23   91 1    
    48   23   92 1    
    49   23   93 1    
    50   24   25 am   BACKBONE|DICT|INTERRES
    51   24   94 1    
    52   25   26 2    
    53   25   27 1    
    54   27   28 1    
    55   27   29 1    
    56   27   95 1    
    57   28   96 1    
    58   28   97 1    
    59   28   98 1    
    60   29   30 am   BACKBONE|DICT|INTERRES
    61   29   99 1    
    62   30   31 2    
    63   30   32 1    
    64   32   33 1    
    65   32   34 1    
    66   32  100 1    
    67   33  101 1    
    68   33  102 1    
    69   33  103 1    
    70   34   35 am   BACKBONE|DICT|INTERRES
    71   34  104 1    
    72   35   36 2    
    73   37   38 2    
    74   37   39 am   BACKBONE|DICT|INTERRES
    75   39   40 1    
    76   39  105 1    
    77   40   41 1    
    78   40   42 1    
    79   40  106 1    
    80   41  107 1    
    81   41  108 1    
    82   41  109 1    
    83   42   43 2    
    84   42   44 am   BACKBONE|DICT|INTERRES
    85   44   45 1    
    86   44  110 1    
    87   45   46 1    
    88   45   47 1    
    89   45  111 1    
    90   46  112 1    
    91   46  113 1    
    92   46  114 1    
    93   47   48 2    
    94   47   49 am   BACKBONE|DICT|INTERRES
    95   49   50 1    
    96   49  115 1    
    97   50   51 1    
    98   50   52 1    
    99   50  116 1    
   100   51  117 1    
   101   51  118 1    
   102   51  119 1    
   103   52   53 2    
   104   52   54 am   BACKBONE|DICT|INTERRES
   105   54   55 1    
   106   54  120 1    
   107   55   56 1    
   108   55   57 1    
   109   55  121 1    
   110   56  122 1    
   111   56  123 1    
   112   56  124 1    
   113   57   58 2    
   114   57   59 am   BACKBONE|DICT|INTERRES
   115   59   60 1    
   116   59  125 1    
   117   60   61 1    
   118   60   62 1    
   119   60  126 1    
   120   61  127 1    
   121   61  128 1    
   122   61  129 1    
   123   62   63 2    
   124   62   64 am   BACKBONE|DICT|INTERRES
   125   64   65 1    
   126   64  130 1    
   127   65   66 1    
   128   65   69 1    
   129   65  131 1    
   130   66   67 am   BACKBONE|DICT|INTERRES
   131   66   68 2    
   132   67  132 1    
   133   67  133 1    
   134   69   70 1    
   135   69  134 1    
   136   69  135 1    
   137   70   71 1    
   138   71  136 1    
   139   71  137 1    
@<TRIPOS>SUBSTRUCTURE
     1 UNK         1 GROUP             0       ****    0 ROOT    
