@<TRIPOS>MOLECULE
3R137
137   139    1
SMALL
USER_CHARGES


@<TRIPOS>ATOM
      1 CA         29.6856   -1.0516   -3.4652 C.3       0 UNK        -0.2020 
      2 C          28.3301   -1.7106   -3.2957 C.2       0 UNK         0.4855 
      3 O          27.3841   -1.3591   -4.0032 O.2       0 UNK        -0.5197 
      4 N          28.2343   -2.6576   -2.3534 N.am      1 UNK        -0.4892 
      5 CA         27.0071   -3.3600   -1.9599 C.3       1 UNK         0.0835 
      6 C6         27.2903   -4.4385   -0.8855 C.3       12 UNK        -0.0855 
      7 S7         28.0640   -5.9423   -1.5697 S.3       12 UNK        -0.2931 
      8 C8         29.8598   -5.5951   -1.4799 C.3       12 UNK         0.0378 
      9 C9         30.4760   -5.0695   -2.7796 C.ar      12 UNK        -0.0802 
     10 C10        31.6276   -4.2743   -2.7241 C.ar      12 UNK        -0.0944 
     11 C11        32.2387   -3.8161   -3.8974 C.ar      12 UNK        -0.0787 
     12 C12        31.6831   -4.1456   -5.1369 C.ar      12 UNK        -0.0862 
     13 C13        30.5433   -4.9499   -5.2114 C.ar      12 UNK        -0.0733 
     14 C14        29.9526   -5.4137   -4.0331 C.ar      12 UNK        -0.0832 
     15 C15        29.9701   -5.3551   -6.5632 C.3       12 UNK         0.0240 
     16 S16        28.2855   -4.7161   -6.8227 S.3       12 UNK        -0.2522 
     17 C17        28.6080   -2.9283   -6.9509 C.3       12 UNK        -0.0967 
     18 CA         27.3420   -2.1378   -7.3579 C.3       5 UNK         0.0660 
     19 N          26.2437   -2.2813   -6.4009 N.am      5 UNK        -0.4015 
     20 C          24.9752   -2.5340   -6.7398 C.2       4 UNK         0.4946 
     21 O          24.5970   -2.7637   -7.8899 O.2       4 UNK        -0.5353 
     22 CA         23.9367   -2.5168   -5.6066 C.3       4 UNK         0.0277 
     23 CB         23.8828   -3.8857   -4.9087 C.3       4 UNK        -0.1981 
     24 N          24.1261   -1.4621   -4.6031 N.am      4 UNK        -0.4209 
     25 C          24.1390   -0.1417   -4.8605 C.2       3 UNK         0.4942 
     26 O          24.1641    0.3283   -5.9977 O.2       3 UNK        -0.5208 
     27 CA         24.0920    0.8371   -3.6745 C.3       3 UNK         0.0250 
     28 CB         22.6889    1.4524   -3.5351 C.3       3 UNK        -0.1990 
     29 N          24.4758    0.2088   -2.4132 N.am      3 UNK        -0.4232 
     30 C          25.2094    0.7633   -1.4455 C.2       2 UNK         0.4993 
     31 O          25.6006    1.9308   -1.4552 O.2       2 UNK        -0.5286 
     32 CA         25.5988   -0.1603   -0.2768 C.3       2 UNK         0.0209 
     33 CB         24.3811   -0.5245    0.5970 C.3       2 UNK        -0.1931 
     34 N          26.3402   -1.3539   -0.7142 N.am      2 UNK        -0.4546 
     35 C          25.9204   -2.3764   -1.4782 C.2       1 UNK         0.5154 
     36 O          24.7590   -2.5156   -1.8704 O.2       1 UNK        -0.5181 
     37 C          27.6677   -0.6484   -7.5460 C.2       5 UNK         0.5014 
     38 O          27.9000   -0.2333   -8.6810 O.2       5 UNK        -0.5248 
     39 N          27.6518    0.1343   -6.4532 N.am      6 UNK        -0.4434 
     40 CA         28.0188    1.5559   -6.4155 C.3       6 UNK         0.0363 
     41 CB         27.9194    2.0808   -4.9756 C.3       6 UNK        -0.1936 
     42 C          27.2282    2.4622   -7.3754 C.2       6 UNK         0.5081 
     43 O          27.7800    3.4586   -7.8428 O.2       6 UNK        -0.5248 
     44 N          25.9742    2.0979   -7.6805 N.am      7 UNK        -0.4718 
     45 CA         25.1472    2.7614   -8.6928 C.3       7 UNK         0.0273 
     46 CB         23.7016    2.2519   -8.5811 C.3       7 UNK        -0.1935 
     47 C          25.6687    2.5871  -10.1335 C.2       7 UNK         0.5018 
     48 O          25.3645    3.4302  -10.9786 O.2       7 UNK        -0.5186 
     49 N          26.4313    1.5151  -10.3927 N.am      8 UNK        -0.4240 
     50 CA         27.0850    1.2491  -11.6729 C.3       8 UNK         0.0235 
     51 CB         27.0418   -0.2572  -11.9836 C.3       8 UNK        -0.2000 
     52 C          28.5280    1.7728  -11.6616 C.2       8 UNK         0.4941 
     53 O          28.9002    2.5115  -12.5746 O.2       8 UNK        -0.5273 
     54 N          29.3101    1.4034  -10.6373 N.am      9 UNK        -0.4262 
     55 CA         30.6978    1.8290  -10.4563 C.3       9 UNK         0.0264 
     56 CB         31.6300    1.0609  -11.4137 C.3       9 UNK        -0.1955 
     57 C          31.1235    1.6047   -9.0020 C.2       9 UNK         0.5031 
     58 O          30.8116    0.5587   -8.4306 O.2       9 UNK        -0.5390 
     59 N          31.8564    2.5732   -8.4399 N.am      10 UNK        -0.4204 
     60 CA         32.4308    2.5059   -7.0941 C.3       10 UNK         0.0237 
     61 CB         32.8742    3.9171   -6.6724 C.3       10 UNK        -0.1985 
     62 C          33.6107    1.5196   -7.0134 C.2       10 UNK         0.4970 
     63 O          34.2319    1.2102   -8.0333 O.2       10 UNK        -0.4914 
     64 N          33.9115    1.0737   -5.7884 N.am      11 UNK        -0.4285 
     65 CA         34.9803    0.1086   -5.4737 C.3       11 UNK         0.1007 
     66 C          36.4316    0.6386   -5.6696 C.2       11 UNK         0.5703 
     67 N          36.6536    1.9394   -5.8190 N.am      11 UNK        -0.7361 
     68 O          37.3740   -0.1497   -5.6896 O.2       11 UNK        -0.4986 
     69 C69        34.8076   -0.4903   -4.0515 C.3       12 UNK        -0.0947 
     70 S70        33.1549   -1.2130   -3.7875 S.3       12 UNK        -0.2240 
     71 C71        33.5171   -2.9915   -3.8371 C.3       12 UNK         0.0194 
     72 H72        30.4597   -1.6195   -2.9536 H         1 UNK         0.0906 
     73 H73        29.9572   -0.9781   -4.5176 H         1 UNK         0.0906 
     74 H74        29.6738   -0.0496   -3.0398 H         1 UNK         0.0906 
     75 H75        29.0670   -2.9305   -1.8525 H         1 UNK         0.3140 
     76 H76        26.6132   -3.8504   -2.8520 H         1 UNK         0.1085 
     77 H77        27.8963   -4.0397   -0.0699 H         1 UNK         0.0836 
     78 H78        26.3573   -4.7685   -0.4229 H         1 UNK         0.0836 
     79 H79        30.0572   -4.9071   -0.6568 H         1 UNK         0.0731 
     80 H80        30.3691   -6.5252   -1.2248 H         1 UNK         0.0731 
     81 H81        32.0615   -4.0219   -1.7658 H         1 UNK         0.1312 
     82 H82        32.1530   -3.7910   -6.0443 H         1 UNK         0.1406 
     83 H83        29.0816   -6.0499   -4.1053 H         1 UNK         0.1631 
     84 H84        30.6114   -5.0193   -7.3796 H         1 UNK         0.0717 
     85 H85        29.9444   -6.4439   -6.6236 H         1 UNK         0.0717 
     86 H86        29.0022   -2.5795   -5.9973 H         1 UNK         0.0934 
     87 H87        29.4020   -2.7743   -7.6850 H         1 UNK         0.0934 
     88 H88        27.0310   -2.5137   -8.3352 H         1 UNK         0.0739 
     89 H89        26.4670   -2.0826   -5.4287 H         1 UNK         0.3093 
     90 H90        22.9637   -2.3378   -6.0688 H         1 UNK         0.0818 
     91 H91        23.0924   -3.9207   -4.1587 H         1 UNK         0.0819 
     92 H92        23.6824   -4.6818   -5.6272 H         1 UNK         0.0819 
     93 H93        24.8246   -4.1245   -4.4149 H         1 UNK         0.0819 
     94 H94        24.1758   -1.7858   -3.6454 H         1 UNK         0.3041 
     95 H95        24.7916    1.6411   -3.9047 H         1 UNK         0.0784 
     96 H96        22.3784    1.9339   -4.4636 H         1 UNK         0.0793 
     97 H97        21.9409    0.6972   -3.2909 H         1 UNK         0.0793 
     98 H98        22.6661    2.2122   -2.7537 H         1 UNK         0.0793 
     99 H99        24.2515   -0.7734   -2.2886 H         1 UNK         0.3024 
    100 H100       26.2883    0.4084    0.3501 H         1 UNK         0.1171 
    101 H101       24.6796   -1.1196    1.4601 H         1 UNK         0.0786 
    102 H102       23.8953    0.3751    0.9770 H         1 UNK         0.0786 
    103 H103       23.6273   -1.0891    0.0480 H         1 UNK         0.0786 
    104 H104       27.3283   -1.3342   -0.5026 H         1 UNK         0.2977 
    105 H105       27.4509   -0.2997   -5.5563 H         1 UNK         0.3127 
    106 H106       29.0649    1.6192   -6.7174 H         1 UNK         0.0770 
    107 H107       26.9189    1.9527   -4.5673 H         1 UNK         0.0814 
    108 H108       28.1581    3.1443   -4.9279 H         1 UNK         0.0814 
    109 H109       28.6178    1.5690   -4.3170 H         1 UNK         0.0814 
    110 H110       25.5643    1.2961   -7.2110 H         1 UNK         0.2983 
    111 H111       25.1488    3.8321   -8.4771 H         1 UNK         0.0947 
    112 H112       23.0567    2.7343   -9.3169 H         1 UNK         0.0806 
    113 H113       23.2826    2.4626   -7.5968 H         1 UNK         0.0806 
    114 H114       23.6406    1.1754   -8.7465 H         1 UNK         0.0806 
    115 H115       26.6936    0.9032   -9.6247 H         1 UNK         0.3000 
    116 H116       26.5492    1.7637  -12.4737 H         1 UNK         0.0850 
    117 H117       27.5044   -0.4670  -12.9489 H         1 UNK         0.0810 
    118 H118       26.0152   -0.6207  -12.0306 H         1 UNK         0.0810 
    119 H119       27.5704   -0.8486  -11.2357 H         1 UNK         0.0810 
    120 H120       28.9377    0.8013   -9.9027 H         1 UNK         0.3040 
    121 H121       30.7620    2.8971  -10.6760 H         1 UNK         0.0766 
    122 H122       31.3964    1.2699  -12.4576 H         1 UNK         0.0812 
    123 H123       31.5561   -0.0168  -11.2627 H         1 UNK         0.0812 
    124 H124       32.6719    1.3418  -11.2541 H         1 UNK         0.0812 
    125 H125       32.1098    3.3766   -8.9965 H         1 UNK         0.3205 
    126 H126       31.6512    2.1647   -6.4090 H         1 UNK         0.0754 
    127 H127       33.2630    3.9217   -5.6533 H         1 UNK         0.0769 
    128 H128       32.0398    4.6187   -6.6986 H         1 UNK         0.0769 
    129 H129       33.6595    4.3053   -7.3227 H         1 UNK         0.0769 
    130 H130       33.3606    1.3831   -5.0017 H         1 UNK         0.2981 
    131 H131       34.8731   -0.7142   -6.1832 H         1 UNK         0.0541 
    132 H132       37.5978    2.2671   -5.9484 H         1 UNK         0.3459 
    133 H133       35.8882    2.5933   -5.8079 H         1 UNK         0.3459 
    134 H134       34.9578    0.2824   -3.2955 H         1 UNK         0.0612 
    135 H135       35.5640   -1.2533   -3.8580 H         1 UNK         0.0612 
    136 H136       34.1040   -3.2648   -2.9589 H         1 UNK         0.0624 
    137 H137       34.1398   -3.2091   -4.7064 H         1 UNK         0.0624 
@<TRIPOS>BOND
     1    1    2 1    
     2    1   72 1    
     3    1   73 1    
     4    1   74 1    
     5    2    3 2    
     6    2    4 am   BACKBONE|DICT|INTERRES
     7    4    5 1    
     8    4   75 1    
     9    5    6 1    
    10    5   35 1    
    11    5   76 1    
    12    6    7 1    
    13    6   77 1    
    14    6   78 1    
    15    7    8 1    
    16    8    9 1    
    17    8   79 1    
    18    8   80 1    
    19    9   10 ar   
    20    9   14 ar   
    21   10   11 ar   
    22   10   81 1    
    23   11   12 ar   
    24   11   71 1    
    25   12   13 ar   
    26   12   82 1    
    27   13   14 ar   
    28   13   15 1    
    29   14   83 1    
    30   15   16 1    
    31   15   84 1    
    32   15   85 1    
    33   16   17 1    
    34   17   18 1    
    35   17   86 1    
    36   17   87 1    
    37   18   19 1    
    38   18   37 1    
    39   18   88 1    
    40   19   20 am   BACKBONE|DICT|INTERRES
    41   19   89 1    
    42   20   21 2    
    43   20   22 1    
    44   22   23 1    
    45   22   24 1    
    46   22   90 1    
    47   23   91 1    
    48   23   92 1    
    49   23   93 1    
    50   24   25 am   BACKBONE|DICT|INTERRES
    51   24   94 1    
    52   25   26 2    
    53   25   27 1    
    54   27   28 1    
    55   27   29 1    
    56   27   95 1    
    57   28   96 1    
    58   28   97 1    
    59   28   98 1    
    60   29   30 am   BACKBONE|DICT|INTERRES
    61   29   99 1    
    62   30   31 2    
    63   30   32 1    
    64   32   33 1    
    65   32   34 1    
    66   32  100 1    
    67   33  101 1    
    68   33  102 1    
    69   33  103 1    
    70   34   35 am   BACKBONE|DICT|INTERRES
    71   34  104 1    
    72   35   36 2    
    73   37   38 2    
    74   37   39 am   BACKBONE|DICT|INTERRES
    75   39   40 1    
    76   39  105 1    
    77   40   41 1    
    78   40   42 1    
    79   40  106 1    
    80   41  107 1    
    81   41  108 1    
    82   41  109 1    
    83   42   43 2    
    84   42   44 am   BACKBONE|DICT|INTERRES
    85   44   45 1    
    86   44  110 1    
    87   45   46 1    
    88   45   47 1    
    89   45  111 1    
    90   46  112 1    
    91   46  113 1    
    92   46  114 1    
    93   47   48 2    
    94   47   49 am   BACKBONE|DICT|INTERRES
    95   49   50 1    
    96   49  115 1    
    97   50   51 1    
    98   50   52 1    
    99   50  116 1    
   100   51  117 1    
   101   51  118 1    
   102   51  119 1    
   103   52   53 2    
   104   52   54 am   BACKBONE|DICT|INTERRES
   105   54   55 1    
   106   54  120 1    
   107   55   56 1    
   108   55   57 1    
   109   55  121 1    
   110   56  122 1    
   111   56  123 1    
   112   56  124 1    
   113   57   58 2    
   114   57   59 am   BACKBONE|DICT|INTERRES
   115   59   60 1    
   116   59  125 1    
   117   60   61 1    
   118   60   62 1    
   119   60  126 1    
   120   61  127 1    
   121   61  128 1    
   122   61  129 1    
   123   62   63 2    
   124   62   64 am   BACKBONE|DICT|INTERRES
   125   64   65 1    
   126   64  130 1    
   127   65   66 1    
   128   65   69 1    
   129   65  131 1    
   130   66   67 am   BACKBONE|DICT|INTERRES
   131   66   68 2    
   132   67  132 1    
   133   67  133 1    
   134   69   70 1    
   135   69  134 1    
   136   69  135 1    
   137   70   71 1    
   138   71  136 1    
   139   71  137 1    
@<TRIPOS>SUBSTRUCTURE
     1 UNK         1 GROUP             0       ****    0 ROOT    
