@<TRIPOS>MOLECULE
3R137
137   139    1
SMALL
USER_CHARGES


@<TRIPOS>ATOM
      1 CA         25.1178   -6.5750    1.1116 C.3       0 UNK        -0.2020 
      2 C          25.6673   -5.1564    1.1046 C.2       0 UNK         0.4855 
      3 O          25.6745   -4.4986    2.1452 O.2       0 UNK        -0.5197 
      4 N          26.1311   -4.6816   -0.0598 N.am      1 UNK        -0.4892 
      5 CA         26.6696   -3.3295   -0.2582 C.3       1 UNK         0.0835 
      6 C6         27.4269   -3.2280   -1.6075 C.3       12 UNK        -0.0855 
      7 S7         28.4643   -1.7288   -1.7461 S.3       12 UNK        -0.2931 
      8 C8         30.1525   -2.4011   -1.6068 C.3       12 UNK         0.0378 
      9 C9         30.7582   -2.6942   -2.9732 C.ar      12 UNK        -0.0802 
     10 C10        31.7775   -1.8840   -3.4831 C.ar      12 UNK        -0.0944 
     11 C11        32.3488   -2.1548   -4.7311 C.ar      12 UNK        -0.0787 
     12 C12        31.8737   -3.2375   -5.4821 C.ar      12 UNK        -0.0862 
     13 C13        30.8450   -4.0466   -4.9886 C.ar      12 UNK        -0.0733 
     14 C14        30.3115   -3.7829   -3.7251 C.ar      12 UNK        -0.0832 
     15 C15        30.3166   -5.2216   -5.8012 C.3       12 UNK         0.0240 
     16 S16        29.1789   -4.7143   -7.1337 S.3       12 UNK        -0.2522 
     17 C17        27.8129   -3.8803   -6.2431 C.3       12 UNK        -0.0967 
     18 CA         27.3427   -2.5846   -6.9512 C.3       5 UNK         0.0660 
     19 N          26.0872   -2.0675   -6.3923 N.am      5 UNK        -0.4015 
     20 C          25.3396   -1.1246   -6.9853 C.2       4 UNK         0.4946 
     21 O          25.6294   -0.5916   -8.0557 O.2       4 UNK        -0.5353 
     22 CA         24.0638   -0.6754   -6.2570 C.3       4 UNK         0.0277 
     23 CB         22.9788   -1.7624   -6.3287 C.3       4 UNK        -0.1981 
     24 N          24.2574   -0.2665   -4.8630 N.am      4 UNK        -0.4209 
     25 C          25.1427    0.6278   -4.4052 C.2       3 UNK         0.4942 
     26 O          26.0212    1.1341   -5.1015 O.2       3 UNK        -0.5208 
     27 CA         25.0375    1.0600   -2.9289 C.3       3 UNK         0.0250 
     28 CB         24.1984    2.3460   -2.8080 C.3       3 UNK        -0.1990 
     29 N          24.5702    0.0411   -1.9749 N.am      3 UNK        -0.4232 
     30 C          23.3972   -0.6058   -1.9016 C.2       2 UNK         0.4993 
     31 O          22.4870   -0.4598   -2.7190 O.2       2 UNK        -0.5286 
     32 CA         23.2381   -1.6182   -0.7460 C.3       2 UNK         0.0209 
     33 CB         21.9382   -2.4386   -0.8506 C.3       2 UNK        -0.1931 
     34 N          24.3735   -2.5434   -0.6605 N.am      2 UNK        -0.4546 
     35 C          25.5750   -2.2477   -0.1447 C.2       1 UNK         0.5154 
     36 O          25.8345   -1.1598    0.3726 O.2       1 UNK        -0.5181 
     37 C          28.4362   -1.4971   -7.0000 C.2       5 UNK         0.5014 
     38 O          29.0805   -1.3428   -8.0381 O.2       5 UNK        -0.5248 
     39 N          28.5810   -0.7305   -5.9081 N.am      6 UNK        -0.4434 
     40 CA         29.5285    0.3812   -5.7944 C.3       6 UNK         0.0363 
     41 CB         29.4896    0.9534   -4.3692 C.3       6 UNK        -0.1936 
     42 C          29.2883    1.4866   -6.8356 C.2       6 UNK         0.5081 
     43 O          30.2516    2.0154   -7.3936 O.2       6 UNK        -0.5248 
     44 N          28.0111    1.7953   -7.0937 N.am      7 UNK        -0.4718 
     45 CA         27.5736    2.7165   -8.1388 C.3       7 UNK         0.0273 
     46 CB         26.0961    3.0806   -7.9191 C.3       7 UNK        -0.1935 
     47 C          27.8001    2.1480   -9.5487 C.2       7 UNK         0.5018 
     48 O          28.3910    2.8357  -10.3812 O.2       7 UNK        -0.5186 
     49 N          27.3409    0.9106   -9.7922 N.am      8 UNK        -0.4240 
     50 CA         27.4076    0.2356  -11.0934 C.3       8 UNK         0.0235 
     51 CB         26.6080   -1.0763  -11.0469 C.3       8 UNK        -0.2000 
     52 C          28.8393   -0.0278  -11.5831 C.2       8 UNK         0.4941 
     53 O          29.1245    0.2057  -12.7584 O.2       8 UNK        -0.5273 
     54 N          29.7149   -0.4913  -10.6816 N.am      9 UNK        -0.4262 
     55 CA         31.1316   -0.7341  -10.9657 C.3       9 UNK         0.0264 
     56 CB         31.6498   -1.8374  -10.0292 C.3       9 UNK        -0.1955 
     57 C          31.9981    0.5375  -10.8744 C.2       9 UNK         0.5031 
     58 O          33.1733    0.4745  -11.2392 O.2       9 UNK        -0.5390 
     59 N          31.4152    1.6559  -10.4108 N.am      10 UNK        -0.4204 
     60 CA         32.0262    2.9780  -10.2246 C.3       10 UNK         0.0237 
     61 CB         32.3646    3.6203  -11.5868 C.3       10 UNK        -0.1985 
     62 C          33.2233    2.9366   -9.2560 C.2       10 UNK         0.4970 
     63 O          34.3117    3.4117   -9.5882 O.2       10 UNK        -0.4914 
     64 N          32.9888    2.3491   -8.0801 N.am      11 UNK        -0.4285 
     65 CA         33.9809    2.1132   -7.0215 C.3       11 UNK         0.1007 
     66 C          33.5176    2.5827   -5.6137 C.2       11 UNK         0.5703 
     67 N          32.3108    3.1119   -5.4499 N.am      11 UNK        -0.7361 
     68 O          34.2818    2.4976   -4.6553 O.2       11 UNK        -0.4986 
     69 C69        34.4946    0.6474   -7.0394 C.3       12 UNK        -0.0947 
     70 S70        33.1608   -0.5882   -6.8823 S.3       12 UNK        -0.2240 
     71 C71        33.4978   -1.2916   -5.2409 C.3       12 UNK         0.0194 
     72 H72        25.6770   -7.1903    1.8160 H         1 UNK         0.0906 
     73 H73        24.0723   -6.5704    1.4189 H         1 UNK         0.0906 
     74 H74        25.1802   -7.0432    0.1294 H         1 UNK         0.0906 
     75 H75        26.1094   -5.2761   -0.8768 H         1 UNK         0.3140 
     76 H76        27.3851   -3.1451    0.5470 H         1 UNK         0.1085 
     77 H77        26.7333   -3.2507   -2.4503 H         1 UNK         0.0836 
     78 H78        28.0597   -4.1070   -1.7239 H         1 UNK         0.0836 
     79 H79        30.7653   -1.6728   -1.0734 H         1 UNK         0.0731 
     80 H80        30.1572   -3.3019   -0.9915 H         1 UNK         0.0731 
     81 H81        32.1350   -1.0456   -2.9009 H         1 UNK         0.1312 
     82 H82        32.3018   -3.4475   -6.4528 H         1 UNK         0.1406 
     83 H83        29.5346   -4.4233   -3.3357 H         1 UNK         0.1631 
     84 H84        29.8078   -5.9395   -5.1560 H         1 UNK         0.0717 
     85 H85        31.1563   -5.7583   -6.2450 H         1 UNK         0.0717 
     86 H86        26.9864   -4.5906   -6.1887 H         1 UNK         0.0934 
     87 H87        28.0891   -3.6695   -5.2113 H         1 UNK         0.0934 
     88 H88        27.1257   -2.8511   -7.9883 H         1 UNK         0.0739 
     89 H89        25.7802   -2.4454   -5.5086 H         1 UNK         0.3093 
     90 H90        23.6904    0.2029   -6.7875 H         1 UNK         0.0818 
     91 H91        23.2511   -2.6485   -5.7543 H         1 UNK         0.0819 
     92 H92        22.0269   -1.3961   -5.9434 H         1 UNK         0.0819 
     93 H93        22.8086   -2.0789   -7.3589 H         1 UNK         0.0819 
     94 H94        23.5391   -0.5539   -4.2010 H         1 UNK         0.3041 
     95 H95        26.0544    1.3020   -2.6150 H         1 UNK         0.0784 
     96 H96        24.5954    3.1327   -3.4513 H         1 UNK         0.0793 
     97 H97        23.1601    2.1829   -3.0989 H         1 UNK         0.0793 
     98 H98        24.2048    2.7292   -1.7876 H         1 UNK         0.0793 
     99 H99        25.2391   -0.1912   -1.2457 H         1 UNK         0.3024 
    100 H100       23.1890   -1.0357    0.1772 H         1 UNK         0.1171 
    101 H101       21.9090   -3.0354   -1.7631 H         1 UNK         0.0786 
    102 H102       21.0632   -1.7870   -0.8584 H         1 UNK         0.0786 
    103 H103       21.8264   -3.1147   -0.0027 H         1 UNK         0.0786 
    104 H104       24.2454   -3.4561   -1.0729 H         1 UNK         0.2977 
    105 H105       27.9807   -0.8931   -5.1140 H         1 UNK         0.3127 
    106 H106       30.5243   -0.0247   -5.9694 H         1 UNK         0.0770 
    107 H107       28.5031    1.3384   -4.1108 H         1 UNK         0.0814 
    108 H108       29.7583    0.1979   -3.6327 H         1 UNK         0.0814 
    109 H109       30.1975    1.7737   -4.2568 H         1 UNK         0.0814 
    110 H110       27.2843    1.3558   -6.5334 H         1 UNK         0.2983 
    111 H111       28.1645    3.6311   -8.0512 H         1 UNK         0.0947 
    112 H112       25.4517    2.2013   -7.9544 H         1 UNK         0.0806 
    113 H113       25.7462    3.7754   -8.6836 H         1 UNK         0.0806 
    114 H114       25.9481    3.5598   -6.9511 H         1 UNK         0.0806 
    115 H115       26.8495    0.4130   -9.0512 H         1 UNK         0.3000 
    116 H116       26.9308    0.8935  -11.8232 H         1 UNK         0.0850 
    117 H117       26.6396   -1.5899  -12.0088 H         1 UNK         0.0810 
    118 H118       25.5593   -0.8926  -10.8128 H         1 UNK         0.0810 
    119 H119       27.0033   -1.7613  -10.2960 H         1 UNK         0.0810 
    120 H120       29.4003   -0.6935   -9.7318 H         1 UNK         0.3040 
    121 H121       31.2271   -1.1040  -11.9888 H         1 UNK         0.0766 
    122 H122       32.7109   -2.0313  -10.1910 H         1 UNK         0.0812 
    123 H123       31.1184   -2.7752  -10.1911 H         1 UNK         0.0812 
    124 H124       31.5224   -1.5646   -8.9832 H         1 UNK         0.0812 
    125 H125       30.4432    1.5926  -10.1373 H         1 UNK         0.3205 
    126 H126       31.2665    3.5995   -9.7476 H         1 UNK         0.0754 
    127 H127       32.7249    4.6417  -11.4578 H         1 UNK         0.0769 
    128 H128       31.4858    3.6657  -12.2302 H         1 UNK         0.0769 
    129 H129       33.1400    3.0660  -12.1165 H         1 UNK         0.0769 
    130 H130       32.0466    2.0209   -7.8792 H         1 UNK         0.2981 
    131 H131       34.8465    2.7465   -7.2226 H         1 UNK         0.0541 
    132 H132       31.6538    3.1459   -6.2168 H         1 UNK         0.3459 
    133 H133       32.0404    3.4375   -4.5363 H         1 UNK         0.3459 
    134 H134       35.2486    0.4872   -6.2668 H         1 UNK         0.0612 
    135 H135       35.0025    0.4575   -7.9861 H         1 UNK         0.0612 
    136 H136       33.6987   -0.4752   -4.5453 H         1 UNK         0.0624 
    137 H137       34.4059   -1.8935   -5.2891 H         1 UNK         0.0624 
@<TRIPOS>BOND
     1    1    2 1    
     2    1   72 1    
     3    1   73 1    
     4    1   74 1    
     5    2    3 2    
     6    2    4 am   BACKBONE|DICT|INTERRES
     7    4    5 1    
     8    4   75 1    
     9    5    6 1    
    10    5   35 1    
    11    5   76 1    
    12    6    7 1    
    13    6   77 1    
    14    6   78 1    
    15    7    8 1    
    16    8    9 1    
    17    8   79 1    
    18    8   80 1    
    19    9   10 ar   
    20    9   14 ar   
    21   10   11 ar   
    22   10   81 1    
    23   11   12 ar   
    24   11   71 1    
    25   12   13 ar   
    26   12   82 1    
    27   13   14 ar   
    28   13   15 1    
    29   14   83 1    
    30   15   16 1    
    31   15   84 1    
    32   15   85 1    
    33   16   17 1    
    34   17   18 1    
    35   17   86 1    
    36   17   87 1    
    37   18   19 1    
    38   18   37 1    
    39   18   88 1    
    40   19   20 am   BACKBONE|DICT|INTERRES
    41   19   89 1    
    42   20   21 2    
    43   20   22 1    
    44   22   23 1    
    45   22   24 1    
    46   22   90 1    
    47   23   91 1    
    48   23   92 1    
    49   23   93 1    
    50   24   25 am   BACKBONE|DICT|INTERRES
    51   24   94 1    
    52   25   26 2    
    53   25   27 1    
    54   27   28 1    
    55   27   29 1    
    56   27   95 1    
    57   28   96 1    
    58   28   97 1    
    59   28   98 1    
    60   29   30 am   BACKBONE|DICT|INTERRES
    61   29   99 1    
    62   30   31 2    
    63   30   32 1    
    64   32   33 1    
    65   32   34 1    
    66   32  100 1    
    67   33  101 1    
    68   33  102 1    
    69   33  103 1    
    70   34   35 am   BACKBONE|DICT|INTERRES
    71   34  104 1    
    72   35   36 2    
    73   37   38 2    
    74   37   39 am   BACKBONE|DICT|INTERRES
    75   39   40 1    
    76   39  105 1    
    77   40   41 1    
    78   40   42 1    
    79   40  106 1    
    80   41  107 1    
    81   41  108 1    
    82   41  109 1    
    83   42   43 2    
    84   42   44 am   BACKBONE|DICT|INTERRES
    85   44   45 1    
    86   44  110 1    
    87   45   46 1    
    88   45   47 1    
    89   45  111 1    
    90   46  112 1    
    91   46  113 1    
    92   46  114 1    
    93   47   48 2    
    94   47   49 am   BACKBONE|DICT|INTERRES
    95   49   50 1    
    96   49  115 1    
    97   50   51 1    
    98   50   52 1    
    99   50  116 1    
   100   51  117 1    
   101   51  118 1    
   102   51  119 1    
   103   52   53 2    
   104   52   54 am   BACKBONE|DICT|INTERRES
   105   54   55 1    
   106   54  120 1    
   107   55   56 1    
   108   55   57 1    
   109   55  121 1    
   110   56  122 1    
   111   56  123 1    
   112   56  124 1    
   113   57   58 2    
   114   57   59 am   BACKBONE|DICT|INTERRES
   115   59   60 1    
   116   59  125 1    
   117   60   61 1    
   118   60   62 1    
   119   60  126 1    
   120   61  127 1    
   121   61  128 1    
   122   61  129 1    
   123   62   63 2    
   124   62   64 am   BACKBONE|DICT|INTERRES
   125   64   65 1    
   126   64  130 1    
   127   65   66 1    
   128   65   69 1    
   129   65  131 1    
   130   66   67 am   BACKBONE|DICT|INTERRES
   131   66   68 2    
   132   67  132 1    
   133   67  133 1    
   134   69   70 1    
   135   69  134 1    
   136   69  135 1    
   137   70   71 1    
   138   71  136 1    
   139   71  137 1    
@<TRIPOS>SUBSTRUCTURE
     1 UNK         1 GROUP             0       ****    0 ROOT    
