@<TRIPOS>MOLECULE
3R137
137   139    1
SMALL
USER_CHARGES


@<TRIPOS>ATOM
      1 CA         28.3812    0.4446    0.7777 C.3       0 UNK        -0.2020 
      2 C          28.0991   -1.0303    0.5330 C.2       0 UNK         0.4855 
      3 O          27.3745   -1.6482    1.3132 O.2       0 UNK        -0.5197 
      4 N          28.6664   -1.5864   -0.5466 N.am      1 UNK        -0.4892 
      5 CA         28.5475   -2.9869   -0.9825 C.3       1 UNK         0.0835 
      6 C6         29.2397   -4.0105   -0.0361 C.3       12 UNK        -0.0855 
      7 S7         30.9714   -3.6014    0.3798 S.3       12 UNK        -0.2931 
      8 C8         31.9004   -4.3690   -0.9896 C.3       12 UNK         0.0378 
      9 C9         31.7964   -3.5495   -2.2684 C.ar      12 UNK        -0.0802 
     10 C10        32.3405   -2.2621   -2.3155 C.ar      12 UNK        -0.0944 
     11 C11        32.2209   -1.4699   -3.4605 C.ar      12 UNK        -0.0787 
     12 C12        31.5560   -1.9963   -4.5756 C.ar      12 UNK        -0.0862 
     13 C13        31.0089   -3.2843   -4.5465 C.ar      12 UNK        -0.0733 
     14 C14        31.1427   -4.0620   -3.3932 C.ar      12 UNK        -0.0832 
     15 C15        30.2559   -3.8259   -5.7570 C.3       12 UNK         0.0240 
     16 S16        28.4444   -3.7845   -5.5338 S.3       12 UNK        -0.2522 
     17 C17        28.1349   -2.0002   -5.3495 C.3       12 UNK        -0.0967 
     18 CA         27.5026   -1.3447   -6.6001 C.3       5 UNK         0.0660 
     19 N          26.0738   -1.6428   -6.7388 N.am      5 UNK        -0.4015 
     20 C          25.2925   -1.2352   -7.7517 C.2       4 UNK         0.4946 
     21 O          25.6992   -0.6116   -8.7322 O.2       4 UNK        -0.5353 
     22 CA         23.7888   -1.5273   -7.6208 C.3       4 UNK         0.0277 
     23 CB         23.4796   -2.9800   -8.0167 C.3       4 UNK        -0.1981 
     24 N          23.2789   -1.2605   -6.2728 N.am      4 UNK        -0.4209 
     25 C          23.2444   -0.0486   -5.6967 C.2       3 UNK         0.4942 
     26 O          23.5933    0.9885   -6.2579 O.2       3 UNK        -0.5208 
     27 CA         22.8007    0.0046   -4.2243 C.3       3 UNK         0.0250 
     28 CB         21.2678    0.0359   -4.1175 C.3       3 UNK        -0.1990 
     29 N          23.3335   -1.1112   -3.4344 N.am      3 UNK        -0.4232 
     30 C          24.6399   -1.3211   -3.2261 C.2       2 UNK         0.4993 
     31 O          25.5281   -0.5628   -3.6293 O.2       2 UNK        -0.5286 
     32 CA         25.0224   -2.6256   -2.5184 C.3       2 UNK         0.0209 
     33 CB         24.8675   -3.8173   -3.4891 C.3       2 UNK        -0.1931 
     34 N          26.4048   -2.5020   -2.0620 N.am      2 UNK        -0.4546 
     35 C          27.0862   -3.3729   -1.3087 C.2       1 UNK         0.5154 
     36 O          26.6048   -4.4216   -0.8741 O.2       1 UNK        -0.5181 
     37 C          27.7573    0.1710   -6.5643 C.2       5 UNK         0.5014 
     38 O          28.6165    0.6470   -7.3061 O.2       5 UNK        -0.5248 
     39 N          27.0077    0.8858   -5.7122 N.am      6 UNK        -0.4434 
     40 CA         27.0864    2.3375   -5.5495 C.3       6 UNK         0.0363 
     41 CB         26.2218    2.7664   -4.3534 C.3       6 UNK        -0.1936 
     42 C          26.6878    3.1091   -6.8183 C.2       6 UNK         0.5081 
     43 O          27.3644    4.0754   -7.1693 O.2       6 UNK        -0.5248 
     44 N          25.6162    2.6642   -7.4902 N.am      7 UNK        -0.4718 
     45 CA         25.1227    3.2420   -8.7426 C.3       7 UNK         0.0273 
     46 CB         23.7461    2.6479   -9.0812 C.3       7 UNK        -0.1935 
     47 C          26.0973    3.0530   -9.9158 C.2       7 UNK         0.5018 
     48 O          26.3285    4.0021  -10.6662 O.2       7 UNK        -0.5186 
     49 N          26.6524    1.8409  -10.0521 N.am      8 UNK        -0.4240 
     50 CA         27.6212    1.4985  -11.0964 C.3       8 UNK         0.0235 
     51 CB         27.6420   -0.0281  -11.2753 C.3       8 UNK        -0.2000 
     52 C          29.0426    2.0161  -10.8131 C.2       8 UNK         0.4941 
     53 O          29.8263    2.1359  -11.7555 O.2       8 UNK        -0.5273 
     54 N          29.3593    2.2655   -9.5323 N.am      9 UNK        -0.4262 
     55 CA         30.6936    2.5236   -8.9729 C.3       9 UNK         0.0264 
     56 CB         31.2764    3.8552   -9.4908 C.3       9 UNK        -0.1955 
     57 C          31.6360    1.3205   -9.1816 C.2       9 UNK         0.5031 
     58 O          32.8188    1.4954   -9.4812 O.2       9 UNK        -0.5390 
     59 N          31.0866    0.1074   -9.0309 N.am      10 UNK        -0.4204 
     60 CA         31.7169   -1.1721   -9.3776 C.3       10 UNK         0.0237 
     61 CB         30.6112   -2.1884   -9.7228 C.3       10 UNK        -0.1985 
     62 C          32.6912   -1.6989   -8.3040 C.2       10 UNK         0.4970 
     63 O          32.7437   -2.9060   -8.0656 O.2       10 UNK        -0.4914 
     64 N          33.4372   -0.7930   -7.6655 N.am      11 UNK        -0.4285 
     65 CA         34.3767   -1.0924   -6.5733 C.3       11 UNK         0.1007 
     66 C          35.7556   -1.6423   -7.0402 C.2       11 UNK         0.5703 
     67 N          36.0655   -1.6597   -8.3315 N.am      11 UNK        -0.7361 
     68 O          36.5578   -2.0707   -6.2140 O.2       11 UNK        -0.4986 
     69 C69        34.5474    0.1162   -5.6160 C.3       12 UNK        -0.0947 
     70 S70        32.9643    0.8042   -5.0188 S.3       12 UNK        -0.2240 
     71 C71        32.7639   -0.0386   -3.4105 C.3       12 UNK         0.0194 
     72 H72        28.8575    0.5786    1.7486 H         1 UNK         0.0906 
     73 H73        27.4499    1.0103    0.7740 H         1 UNK         0.0906 
     74 H74        29.0378    0.8680    0.0177 H         1 UNK         0.0906 
     75 H75        29.2628   -1.0142   -1.1278 H         1 UNK         0.3140 
     76 H76        29.0614   -3.0356   -1.9417 H         1 UNK         0.1085 
     77 H77        29.2140   -5.0106   -0.4727 H         1 UNK         0.0836 
     78 H78        28.6879   -4.0819    0.9030 H         1 UNK         0.0836 
     79 H79        32.9506   -4.4417   -0.7034 H         1 UNK         0.0731 
     80 H80        31.5542   -5.3923   -1.1430 H         1 UNK         0.0731 
     81 H81        32.8347   -1.8647   -1.4390 H         1 UNK         0.1312 
     82 H82        31.4347   -1.3987   -5.4674 H         1 UNK         0.1406 
     83 H83        30.7129   -5.0544   -3.3659 H         1 UNK         0.1631 
     84 H84        30.5670   -4.8537   -5.9488 H         1 UNK         0.0717 
     85 H85        30.5110   -3.2601   -6.6526 H         1 UNK         0.0717 
     86 H86        27.4996   -1.8638   -4.4789 H         1 UNK         0.0934 
     87 H87        29.0655   -1.5025   -5.0867 H         1 UNK         0.0934 
     88 H88        28.0039   -1.7306   -7.4899 H         1 UNK         0.0739 
     89 H89        25.6459   -2.1378   -5.9729 H         1 UNK         0.3093 
     90 H90        23.2633   -0.8657   -8.3129 H         1 UNK         0.0818 
     91 H91        23.8411   -3.1935   -9.0238 H         1 UNK         0.0819 
     92 H92        23.9511   -3.6967   -7.3430 H         1 UNK         0.0819 
     93 H93        22.4065   -3.1718   -8.0135 H         1 UNK         0.0819 
     94 H94        22.9542   -2.0536   -5.7399 H         1 UNK         0.3041 
     95 H95        23.1910    0.9312   -3.7975 H         1 UNK         0.0784 
     96 H96        20.8554    0.8702   -4.6870 H         1 UNK         0.0793 
     97 H97        20.8135   -0.8777   -4.5028 H         1 UNK         0.0793 
     98 H98        20.9450    0.1618   -3.0838 H         1 UNK         0.0793 
     99 H99        22.6629   -1.7733   -3.0701 H         1 UNK         0.3024 
    100 H100       24.3754   -2.7600   -1.6488 H         1 UNK         0.1171 
    101 H101       25.5507   -3.7415   -4.3350 H         1 UNK         0.0786 
    102 H102       25.0626   -4.7682   -2.9941 H         1 UNK         0.0786 
    103 H103       23.8548   -3.8781   -3.8892 H         1 UNK         0.0786 
    104 H104       26.8431   -1.6318   -2.3390 H         1 UNK         0.2977 
    105 H105       26.3525    0.3972   -5.1065 H         1 UNK         0.3127 
    106 H106       28.1258    2.5867   -5.3250 H         1 UNK         0.0770 
    107 H107       26.2876    3.8428   -4.1901 H         1 UNK         0.0814 
    108 H108       25.1702    2.5225   -4.5077 H         1 UNK         0.0814 
    109 H109       26.5456    2.2773   -3.4344 H         1 UNK         0.0814 
    110 H110       25.0731    1.8993   -7.0963 H         1 UNK         0.2983 
    111 H111       24.9997    4.3162   -8.5876 H         1 UNK         0.0947 
    112 H112       23.7929    1.5650   -9.2034 H         1 UNK         0.0806 
    113 H113       23.3558    3.0665  -10.0098 H         1 UNK         0.0806 
    114 H114       23.0192    2.8632   -8.2979 H         1 UNK         0.0806 
    115 H115       26.3706    1.0921   -9.4230 H         1 UNK         0.3000 
    116 H116       27.2920    1.9455  -12.0370 H         1 UNK         0.0850 
    117 H117       28.3448   -0.3242  -12.0553 H         1 UNK         0.0810 
    118 H118       26.6605   -0.4065  -11.5614 H         1 UNK         0.0810 
    119 H119       27.9376   -0.5345  -10.3557 H         1 UNK         0.0810 
    120 H120       28.6476    2.0734   -8.8356 H         1 UNK         0.3040 
    121 H121       30.5576    2.6206   -7.8946 H         1 UNK         0.0766 
    122 H122       32.2011    4.1035   -8.9686 H         1 UNK         0.0812 
    123 H123       30.5818    4.6797   -9.3305 H         1 UNK         0.0812 
    124 H124       31.5083    3.8123  -10.5553 H         1 UNK         0.0812 
    125 H125       30.1373    0.0739   -8.6753 H         1 UNK         0.3205 
    126 H126       32.3129   -1.0229  -10.2804 H         1 UNK         0.0754 
    127 H127       31.0336   -3.1466  -10.0285 H         1 UNK         0.0769 
    128 H128       29.9985   -1.8368  -10.5523 H         1 UNK         0.0769 
    129 H129       29.9539   -2.3759   -8.8738 H         1 UNK         0.0769 
    130 H130       33.3735    0.1741   -7.9603 H         1 UNK         0.2981 
    131 H131       33.9436   -1.9011   -5.9833 H         1 UNK         0.0541 
    132 H132       36.9602   -2.0229   -8.6202 H         1 UNK         0.3459 
    133 H133       35.4163   -1.3092   -9.0171 H         1 UNK         0.3459 
    134 H134       35.0817    0.9212   -6.1237 H         1 UNK         0.0612 
    135 H135       35.1621   -0.1577   -4.7569 H         1 UNK         0.0612 
    136 H136       32.0733    0.5562   -2.8115 H         1 UNK         0.0624 
    137 H137       33.7174   -0.0206   -2.8806 H         1 UNK         0.0624 
@<TRIPOS>BOND
     1    1    2 1    
     2    1   72 1    
     3    1   73 1    
     4    1   74 1    
     5    2    3 2    
     6    2    4 am   BACKBONE|DICT|INTERRES
     7    4    5 1    
     8    4   75 1    
     9    5    6 1    
    10    5   35 1    
    11    5   76 1    
    12    6    7 1    
    13    6   77 1    
    14    6   78 1    
    15    7    8 1    
    16    8    9 1    
    17    8   79 1    
    18    8   80 1    
    19    9   10 ar   
    20    9   14 ar   
    21   10   11 ar   
    22   10   81 1    
    23   11   12 ar   
    24   11   71 1    
    25   12   13 ar   
    26   12   82 1    
    27   13   14 ar   
    28   13   15 1    
    29   14   83 1    
    30   15   16 1    
    31   15   84 1    
    32   15   85 1    
    33   16   17 1    
    34   17   18 1    
    35   17   86 1    
    36   17   87 1    
    37   18   19 1    
    38   18   37 1    
    39   18   88 1    
    40   19   20 am   BACKBONE|DICT|INTERRES
    41   19   89 1    
    42   20   21 2    
    43   20   22 1    
    44   22   23 1    
    45   22   24 1    
    46   22   90 1    
    47   23   91 1    
    48   23   92 1    
    49   23   93 1    
    50   24   25 am   BACKBONE|DICT|INTERRES
    51   24   94 1    
    52   25   26 2    
    53   25   27 1    
    54   27   28 1    
    55   27   29 1    
    56   27   95 1    
    57   28   96 1    
    58   28   97 1    
    59   28   98 1    
    60   29   30 am   BACKBONE|DICT|INTERRES
    61   29   99 1    
    62   30   31 2    
    63   30   32 1    
    64   32   33 1    
    65   32   34 1    
    66   32  100 1    
    67   33  101 1    
    68   33  102 1    
    69   33  103 1    
    70   34   35 am   BACKBONE|DICT|INTERRES
    71   34  104 1    
    72   35   36 2    
    73   37   38 2    
    74   37   39 am   BACKBONE|DICT|INTERRES
    75   39   40 1    
    76   39  105 1    
    77   40   41 1    
    78   40   42 1    
    79   40  106 1    
    80   41  107 1    
    81   41  108 1    
    82   41  109 1    
    83   42   43 2    
    84   42   44 am   BACKBONE|DICT|INTERRES
    85   44   45 1    
    86   44  110 1    
    87   45   46 1    
    88   45   47 1    
    89   45  111 1    
    90   46  112 1    
    91   46  113 1    
    92   46  114 1    
    93   47   48 2    
    94   47   49 am   BACKBONE|DICT|INTERRES
    95   49   50 1    
    96   49  115 1    
    97   50   51 1    
    98   50   52 1    
    99   50  116 1    
   100   51  117 1    
   101   51  118 1    
   102   51  119 1    
   103   52   53 2    
   104   52   54 am   BACKBONE|DICT|INTERRES
   105   54   55 1    
   106   54  120 1    
   107   55   56 1    
   108   55   57 1    
   109   55  121 1    
   110   56  122 1    
   111   56  123 1    
   112   56  124 1    
   113   57   58 2    
   114   57   59 am   BACKBONE|DICT|INTERRES
   115   59   60 1    
   116   59  125 1    
   117   60   61 1    
   118   60   62 1    
   119   60  126 1    
   120   61  127 1    
   121   61  128 1    
   122   61  129 1    
   123   62   63 2    
   124   62   64 am   BACKBONE|DICT|INTERRES
   125   64   65 1    
   126   64  130 1    
   127   65   66 1    
   128   65   69 1    
   129   65  131 1    
   130   66   67 am   BACKBONE|DICT|INTERRES
   131   66   68 2    
   132   67  132 1    
   133   67  133 1    
   134   69   70 1    
   135   69  134 1    
   136   69  135 1    
   137   70   71 1    
   138   71  136 1    
   139   71  137 1    
@<TRIPOS>SUBSTRUCTURE
     1 UNK         1 GROUP             0       ****    0 ROOT    
