@<TRIPOS>MOLECULE
3R137
137   139    1
SMALL
USER_CHARGES


@<TRIPOS>ATOM
      1 CA         29.2898   -0.4971   -3.0778 C.3       0 UNK        -0.2020 
      2 C          29.3021    0.0110   -1.6381 C.2       0 UNK         0.4855 
      3 O          29.6790    1.1575   -1.4050 O.2       0 UNK        -0.5197 
      4 N          28.9124   -0.7952   -0.6420 N.am      1 UNK        -0.4892 
      5 CA         28.3575   -2.1445   -0.7858 C.3       1 UNK         0.0835 
      6 C6         28.6510   -3.0438    0.4421 C.3       12 UNK        -0.0855 
      7 S7         30.4308   -3.2049    0.8179 S.3       12 UNK        -0.2931 
      8 C8         30.8924   -4.6978   -0.1205 C.3       12 UNK         0.0378 
      9 C9         30.9730   -4.4141   -1.6132 C.ar      12 UNK        -0.0802 
     10 C10        32.0568   -3.6964   -2.1280 C.ar      12 UNK        -0.0944 
     11 C11        32.1299   -3.4050   -3.4924 C.ar      12 UNK        -0.0787 
     12 C12        31.1117   -3.8398   -4.3453 C.ar      12 UNK        -0.0862 
     13 C13        30.0116   -4.5373   -3.8389 C.ar      12 UNK        -0.0733 
     14 C14        29.9590   -4.8443   -2.4754 C.ar      12 UNK        -0.0832 
     15 C15        28.8650   -4.9305   -4.7565 C.3       12 UNK         0.0240 
     16 S16        27.7387   -3.5244   -5.0295 S.3       12 UNK        -0.2522 
     17 C17        28.3937   -2.8306   -6.5841 C.3       12 UNK        -0.0967 
     18 CA         27.5329   -1.7135   -7.2355 C.3       5 UNK         0.0660 
     19 N          26.0882   -1.9533   -7.1565 N.am      5 UNK        -0.4015 
     20 C          25.1791   -1.3479   -7.9339 C.2       4 UNK         0.4946 
     21 O          25.4619   -0.5234   -8.8039 O.2       4 UNK        -0.5353 
     22 CA         23.7045   -1.6999   -7.6802 C.3       4 UNK         0.0277 
     23 CB         23.4017   -3.1509   -8.0902 C.3       4 UNK        -0.1981 
     24 N          23.2993   -1.4806   -6.2901 N.am      4 UNK        -0.4209 
     25 C          23.2758   -0.2841   -5.6852 C.2       3 UNK         0.4942 
     26 O          23.5910    0.7694   -6.2338 O.2       3 UNK        -0.5208 
     27 CA         22.8604   -0.2528   -4.2048 C.3       3 UNK         0.0250 
     28 CB         21.3316   -0.1556   -4.0777 C.3       3 UNK        -0.1990 
     29 N          23.3488   -1.3849   -3.4103 N.am      3 UNK        -0.4232 
     30 C          24.6338   -1.7457   -3.2931 C.2       2 UNK         0.4993 
     31 O          25.5555   -1.2190   -3.9219 O.2       2 UNK        -0.5286 
     32 CA         24.9227   -2.9152   -2.3378 C.3       2 UNK         0.0209 
     33 CB         24.5941   -4.2605   -3.0076 C.3       2 UNK        -0.1931 
     34 N          26.3240   -2.9191   -1.9137 N.am      2 UNK        -0.4546 
     35 C          26.8407   -2.0558   -1.0303 C.2       1 UNK         0.5154 
     36 O          26.1676   -1.2371   -0.3978 O.2       1 UNK        -0.5181 
     37 C          27.9276   -0.2994   -6.7675 C.2       5 UNK         0.5014 
     38 O          28.8800    0.2578   -7.3192 O.2       5 UNK        -0.5248 
     39 N          27.1795    0.2728   -5.8114 N.am      6 UNK        -0.4434 
     40 CA         27.3140    1.6658   -5.3823 C.3       6 UNK         0.0363 
     41 CB         26.4859    1.9104   -4.1107 C.3       6 UNK        -0.1936 
     42 C          26.9262    2.6611   -6.4882 C.2       6 UNK         0.5081 
     43 O          27.6978    3.5800   -6.7611 O.2       6 UNK        -0.5248 
     44 N          25.7613    2.4560   -7.1226 N.am      7 UNK        -0.4718 
     45 CA         25.2586    3.2912   -8.2200 C.3       7 UNK         0.0273 
     46 CB         23.7964    2.9332   -8.5281 C.3       7 UNK        -0.1935 
     47 C          26.1134    3.1910   -9.4920 C.2       7 UNK         0.5018 
     48 O          26.3411    4.2089  -10.1470 O.2       7 UNK        -0.5186 
     49 N          26.5907    1.9782   -9.8054 N.am      8 UNK        -0.4240 
     50 CA         27.5180    1.7189  -10.9095 C.3       8 UNK         0.0235 
     51 CB         27.5606    0.2073  -11.1876 C.3       8 UNK        -0.2000 
     52 C          28.9418    2.2462  -10.6533 C.2       8 UNK         0.4941 
     53 O          29.6897    2.4133  -11.6174 O.2       8 UNK        -0.5273 
     54 N          29.2943    2.4655   -9.3752 N.am      9 UNK        -0.4262 
     55 CA         30.6273    2.7964   -8.8569 C.3       9 UNK         0.0264 
     56 CB         31.0577    4.2117   -9.2959 C.3       9 UNK        -0.1955 
     57 C          31.6503    1.7035   -9.2202 C.2       9 UNK         0.5031 
     58 O          32.7141    1.9992   -9.7682 O.2       9 UNK        -0.5390 
     59 N          31.2716    0.4466   -8.9507 N.am      10 UNK        -0.4204 
     60 CA         31.9925   -0.7515   -9.3896 C.3       10 UNK         0.0237 
     61 CB         31.0575   -1.9660   -9.2747 C.3       10 UNK        -0.1985 
     62 C          33.3069   -1.0141   -8.6342 C.2       10 UNK         0.4970 
     63 O          34.1632   -1.7261   -9.1609 O.2       10 UNK        -0.4914 
     64 N          33.4331   -0.4744   -7.4163 N.am      11 UNK        -0.4285 
     65 CA         34.5973   -0.6483   -6.5372 C.3       11 UNK         0.1007 
     66 C          35.8775    0.0402   -7.0838 C.2       11 UNK         0.5703 
     67 N          37.0415   -0.5635   -6.8840 N.am      11 UNK        -0.7361 
     68 O          35.8301    1.1339   -7.6436 O.2       11 UNK        -0.4986 
     69 C69        34.3019   -0.1830   -5.0867 C.3       12 UNK        -0.0947 
     70 S70        32.7717   -0.8874   -4.3895 S.3       12 UNK        -0.2240 
     71 C71        33.2902   -2.5961   -4.0466 C.3       12 UNK         0.0194 
     72 H72        29.6272    0.2799   -3.7627 H         1 UNK         0.0906 
     73 H73        29.9619   -1.3462   -3.1945 H         1 UNK         0.0906 
     74 H74        28.2883   -0.7995   -3.3813 H         1 UNK         0.0906 
     75 H75        28.9114   -0.4342    0.3010 H         1 UNK         0.3140 
     76 H76        28.8081   -2.6168   -1.6556 H         1 UNK         0.1085 
     77 H77        28.1632   -2.6405    1.3320 H         1 UNK         0.0836 
     78 H78        28.2297   -4.0409    0.2985 H         1 UNK         0.0836 
     79 H79        31.8650   -5.0461    0.2304 H         1 UNK         0.0731 
     80 H80        30.1877   -5.5034    0.0912 H         1 UNK         0.0731 
     81 H81        32.8340   -3.3498   -1.4602 H         1 UNK         0.1312 
     82 H82        31.1641   -3.6043   -5.3988 H         1 UNK         0.1406 
     83 H83        29.1133   -5.3902   -2.0794 H         1 UNK         0.1631 
     84 H84        29.2502   -5.3047   -5.7060 H         1 UNK         0.0717 
     85 H85        28.2960   -5.7514   -4.3175 H         1 UNK         0.0717 
     86 H86        29.4120   -2.4835   -6.4063 H         1 UNK         0.0934 
     87 H87        28.4847   -3.6543   -7.2940 H         1 UNK         0.0934 
     88 H88        27.7819   -1.7309   -8.2989 H         1 UNK         0.0739 
     89 H89        25.7846   -2.5790   -6.4242 H         1 UNK         0.3093 
     90 H90        23.1008   -1.0402   -8.3075 H         1 UNK         0.0818 
     91 H91        22.3351   -3.3662   -8.0220 H         1 UNK         0.0819 
     92 H92        23.7005   -3.3339   -9.1234 H         1 UNK         0.0819 
     93 H93        23.9291   -3.8728   -7.4656 H         1 UNK         0.0819 
     94 H94        23.0296   -2.2920   -5.7540 H         1 UNK         0.3041 
     95 H95        23.2918    0.6507   -3.7696 H         1 UNK         0.0784 
     96 H96        20.9463    0.6921   -4.6465 H         1 UNK         0.0793 
     97 H97        20.8358   -1.0519   -4.4527 H         1 UNK         0.0793 
     98 H98        21.0270   -0.0110   -3.0410 H         1 UNK         0.0793 
     99 H99        22.6550   -1.8843   -2.8723 H         1 UNK         0.3024 
    100 H100       24.2940   -2.8004   -1.4515 H         1 UNK         0.1171 
    101 H101       24.8105   -5.0973   -2.3432 H         1 UNK         0.0786 
    102 H102       23.5364   -4.3231   -3.2663 H         1 UNK         0.0786 
    103 H103       25.1603   -4.4089   -3.9270 H         1 UNK         0.0786 
    104 H104       26.9428   -3.5147   -2.4447 H         1 UNK         0.2977 
    105 H105       26.4621   -0.2809   -5.3477 H         1 UNK         0.3127 
    106 H106       28.3640    1.8391   -5.1384 H         1 UNK         0.0770 
    107 H107       25.4231    1.7419   -4.2831 H         1 UNK         0.0814 
    108 H108       26.6017    2.9371   -3.7618 H         1 UNK         0.0814 
    109 H109       26.7983    1.2552   -3.2978 H         1 UNK         0.0814 
    110 H110       25.1543    1.6966   -6.8209 H         1 UNK         0.2983 
    111 H111       25.2898    4.3309   -7.8868 H         1 UNK         0.0947 
    112 H112       23.4053    3.5451   -9.3420 H         1 UNK         0.0806 
    113 H113       23.1571    3.1011   -7.6613 H         1 UNK         0.0806 
    114 H114       23.6918    1.8881   -8.8233 H         1 UNK         0.0806 
    115 H115       26.2879    1.1744   -9.2594 H         1 UNK         0.3000 
    116 H116       27.1367    2.2214  -11.8011 H         1 UNK         0.0850 
    117 H117       28.2126   -0.0182  -12.0325 H         1 UNK         0.0810 
    118 H118       26.5707   -0.1804  -11.4290 H         1 UNK         0.0810 
    119 H119       27.9369   -0.3475  -10.3278 H         1 UNK         0.0810 
    120 H120       28.5980    2.2800   -8.6644 H         1 UNK         0.3040 
    121 H121       30.5433    2.7964   -7.7688 H         1 UNK         0.0766 
    122 H122       30.3168    4.9568   -9.0061 H         1 UNK         0.0812 
    123 H123       31.1971    4.2789  -10.3752 H         1 UNK         0.0812 
    124 H124       32.0021    4.4932   -8.8287 H         1 UNK         0.0812 
    125 H125       30.3898    0.3089   -8.4588 H         1 UNK         0.3205 
    126 H126       32.2466   -0.6193  -10.4436 H         1 UNK         0.0754 
    127 H127       31.5342   -2.8646   -9.6688 H         1 UNK         0.0769 
    128 H128       30.1354   -1.8158   -9.8366 H         1 UNK         0.0769 
    129 H129       30.7937   -2.1671   -8.2374 H         1 UNK         0.0769 
    130 H130       32.6880    0.1040   -7.0603 H         1 UNK         0.2981 
    131 H131       34.8002   -1.7202   -6.5047 H         1 UNK         0.0541 
    132 H132       37.0953   -1.4537   -6.4139 H         1 UNK         0.3459 
    133 H133       37.8845   -0.1223   -7.2170 H         1 UNK         0.3459 
    134 H134       34.2055    0.9038   -5.0505 H         1 UNK         0.0612 
    135 H135       35.1325   -0.4366   -4.4254 H         1 UNK         0.0612 
    136 H136       33.6499   -3.0651   -4.9628 H         1 UNK         0.0624 
    137 H137       34.1273   -2.5881   -3.3469 H         1 UNK         0.0624 
@<TRIPOS>BOND
     1    1    2 1    
     2    1   72 1    
     3    1   73 1    
     4    1   74 1    
     5    2    3 2    
     6    2    4 am   BACKBONE|DICT|INTERRES
     7    4    5 1    
     8    4   75 1    
     9    5    6 1    
    10    5   35 1    
    11    5   76 1    
    12    6    7 1    
    13    6   77 1    
    14    6   78 1    
    15    7    8 1    
    16    8    9 1    
    17    8   79 1    
    18    8   80 1    
    19    9   10 ar   
    20    9   14 ar   
    21   10   11 ar   
    22   10   81 1    
    23   11   12 ar   
    24   11   71 1    
    25   12   13 ar   
    26   12   82 1    
    27   13   14 ar   
    28   13   15 1    
    29   14   83 1    
    30   15   16 1    
    31   15   84 1    
    32   15   85 1    
    33   16   17 1    
    34   17   18 1    
    35   17   86 1    
    36   17   87 1    
    37   18   19 1    
    38   18   37 1    
    39   18   88 1    
    40   19   20 am   BACKBONE|DICT|INTERRES
    41   19   89 1    
    42   20   21 2    
    43   20   22 1    
    44   22   23 1    
    45   22   24 1    
    46   22   90 1    
    47   23   91 1    
    48   23   92 1    
    49   23   93 1    
    50   24   25 am   BACKBONE|DICT|INTERRES
    51   24   94 1    
    52   25   26 2    
    53   25   27 1    
    54   27   28 1    
    55   27   29 1    
    56   27   95 1    
    57   28   96 1    
    58   28   97 1    
    59   28   98 1    
    60   29   30 am   BACKBONE|DICT|INTERRES
    61   29   99 1    
    62   30   31 2    
    63   30   32 1    
    64   32   33 1    
    65   32   34 1    
    66   32  100 1    
    67   33  101 1    
    68   33  102 1    
    69   33  103 1    
    70   34   35 am   BACKBONE|DICT|INTERRES
    71   34  104 1    
    72   35   36 2    
    73   37   38 2    
    74   37   39 am   BACKBONE|DICT|INTERRES
    75   39   40 1    
    76   39  105 1    
    77   40   41 1    
    78   40   42 1    
    79   40  106 1    
    80   41  107 1    
    81   41  108 1    
    82   41  109 1    
    83   42   43 2    
    84   42   44 am   BACKBONE|DICT|INTERRES
    85   44   45 1    
    86   44  110 1    
    87   45   46 1    
    88   45   47 1    
    89   45  111 1    
    90   46  112 1    
    91   46  113 1    
    92   46  114 1    
    93   47   48 2    
    94   47   49 am   BACKBONE|DICT|INTERRES
    95   49   50 1    
    96   49  115 1    
    97   50   51 1    
    98   50   52 1    
    99   50  116 1    
   100   51  117 1    
   101   51  118 1    
   102   51  119 1    
   103   52   53 2    
   104   52   54 am   BACKBONE|DICT|INTERRES
   105   54   55 1    
   106   54  120 1    
   107   55   56 1    
   108   55   57 1    
   109   55  121 1    
   110   56  122 1    
   111   56  123 1    
   112   56  124 1    
   113   57   58 2    
   114   57   59 am   BACKBONE|DICT|INTERRES
   115   59   60 1    
   116   59  125 1    
   117   60   61 1    
   118   60   62 1    
   119   60  126 1    
   120   61  127 1    
   121   61  128 1    
   122   61  129 1    
   123   62   63 2    
   124   62   64 am   BACKBONE|DICT|INTERRES
   125   64   65 1    
   126   64  130 1    
   127   65   66 1    
   128   65   69 1    
   129   65  131 1    
   130   66   67 am   BACKBONE|DICT|INTERRES
   131   66   68 2    
   132   67  132 1    
   133   67  133 1    
   134   69   70 1    
   135   69  134 1    
   136   69  135 1    
   137   70   71 1    
   138   71  136 1    
   139   71  137 1    
@<TRIPOS>SUBSTRUCTURE
     1 UNK         1 GROUP             0       ****    0 ROOT    
