@<TRIPOS>MOLECULE
3R137
137   139    1
SMALL
USER_CHARGES


@<TRIPOS>ATOM
      1 CA         26.7920   -2.8532    3.1641 C.3       0 UNK        -0.2020 
      2 C          26.5994   -1.8688    2.0206 C.2       0 UNK         0.4855 
      3 O          26.0797   -0.7738    2.2357 O.2       0 UNK        -0.5197 
      4 N          27.0081   -2.2516    0.8036 N.am      1 UNK        -0.4892 
      5 CA         26.9273   -1.4202   -0.4082 C.3       1 UNK         0.0835 
      6 C6         27.9658   -1.8486   -1.4770 C.3       12 UNK        -0.0855 
      7 S7         29.6772   -1.7188   -0.8512 S.3       12 UNK        -0.2931 
      8 C8         30.3036   -3.4152   -1.0687 C.3       12 UNK         0.0378 
      9 C9         30.7333   -3.6663   -2.5064 C.ar      12 UNK        -0.0802 
     10 C10        31.9900   -3.2342   -2.9438 C.ar      12 UNK        -0.0944 
     11 C11        32.4005   -3.4382   -4.2652 C.ar      12 UNK        -0.0787 
     12 C12        31.5389   -4.1056   -5.1441 C.ar      12 UNK        -0.0862 
     13 C13        30.2694   -4.5153   -4.7281 C.ar      12 UNK        -0.0733 
     14 C14        29.8764   -4.3111   -3.4031 C.ar      12 UNK        -0.0832 
     15 C15        29.2960   -5.0964   -5.7430 C.3       12 UNK         0.0240 
     16 S16        28.0505   -3.8682   -6.2702 S.3       12 UNK        -0.2522 
     17 C17        29.0511   -2.3540   -6.4801 C.3       12 UNK        -0.0967 
     18 CA         28.2369   -1.1327   -6.9582 C.3       5 UNK         0.0660 
     19 N          27.0425   -0.9006   -6.1327 N.am      5 UNK        -0.4015 
     20 C          26.1261    0.0603   -6.3196 C.2       4 UNK         0.4946 
     21 O          26.2274    0.9286   -7.1888 O.2       4 UNK        -0.5353 
     22 CA         24.9284    0.0922   -5.3517 C.3       4 UNK         0.0277 
     23 CB         23.6730    0.7227   -5.9915 C.3       4 UNK        -0.1981 
     24 N          24.6163   -1.2027   -4.7301 N.am      4 UNK        -0.4209 
     25 C          24.1770   -2.3199   -5.3364 C.2       3 UNK         0.4942 
     26 O          24.0138   -2.4166   -6.5528 O.2       3 UNK        -0.5208 
     27 CA         23.8682   -3.5475   -4.4514 C.3       3 UNK         0.0250 
     28 CB         24.8709   -4.6835   -4.7120 C.3       3 UNK        -0.1990 
     29 N          23.8555   -3.2593   -3.0156 N.am      3 UNK        -0.4232 
     30 C          22.8975   -2.5809   -2.3703 C.2       2 UNK         0.4993 
     31 O          21.8546   -2.1965   -2.9000 O.2       2 UNK        -0.5286 
     32 CA         23.1605   -2.2474   -0.8901 C.3       2 UNK         0.0209 
     33 CB         22.4268   -3.2426    0.0237 C.3       2 UNK        -0.1931 
     34 N          24.5807   -2.2052   -0.5111 N.am      2 UNK        -0.4546 
     35 C          25.5050   -1.3689   -1.0112 C.2       1 UNK         0.5154 
     36 O          25.2742   -0.5886   -1.9362 O.2       1 UNK        -0.5181 
     37 C          29.1696    0.0923   -7.0509 C.2       5 UNK         0.5014 
     38 O          29.8259    0.2738   -8.0765 O.2       5 UNK        -0.5248 
     39 N          29.1911    0.9277   -6.0029 N.am      6 UNK        -0.4434 
     40 CA         29.9230    2.1954   -5.9534 C.3       6 UNK         0.0363 
     41 CB         29.8534    2.7617   -4.5267 C.3       6 UNK        -0.1936 
     42 C          29.4363    3.2406   -6.9757 C.2       6 UNK         0.5081 
     43 O          30.2101    4.1292   -7.3299 O.2       6 UNK        -0.5248 
     44 N          28.1857    3.1148   -7.4390 N.am      7 UNK        -0.4718 
     45 CA         27.6052    3.9307   -8.5037 C.3       7 UNK         0.0273 
     46 CB         26.2249    4.4421   -8.0576 C.3       7 UNK        -0.1935 
     47 C          27.4867    3.1232   -9.8040 C.2       7 UNK         0.5018 
     48 O          27.8495    3.6334  -10.8636 O.2       7 UNK        -0.5186 
     49 N          26.9781    1.8861   -9.7056 N.am      8 UNK        -0.4240 
     50 CA         26.6592    1.0225  -10.8449 C.3       8 UNK         0.0235 
     51 CB         25.7619   -0.1336  -10.3732 C.3       8 UNK        -0.2000 
     52 C          27.8903    0.4824  -11.5900 C.2       8 UNK         0.4941 
     53 O          27.8566    0.4076  -12.8189 O.2       8 UNK        -0.5273 
     54 N          28.9402    0.1101  -10.8463 N.am      9 UNK        -0.4262 
     55 CA         30.1863   -0.4509  -11.3806 C.3       9 UNK         0.0264 
     56 CB         30.4167   -1.8323  -10.7398 C.3       9 UNK        -0.1955 
     57 C          31.3967    0.4665  -11.1328 C.2       9 UNK         0.5031 
     58 O          32.4912    0.1396  -11.5940 O.2       9 UNK        -0.5390 
     59 N          31.1931    1.5712  -10.3971 N.am      10 UNK        -0.4204 
     60 CA         32.2044    2.5078   -9.8910 C.3       10 UNK         0.0237 
     61 CB         32.8708    3.2823  -11.0487 C.3       10 UNK        -0.1985 
     62 C          33.2221    1.8354   -8.9441 C.2       10 UNK         0.4970 
     63 O          34.3986    2.2036   -8.9511 O.2       10 UNK        -0.4914 
     64 N          32.7589    0.8465   -8.1658 N.am      11 UNK        -0.4285 
     65 CA         33.5806    0.0591   -7.2357 C.3       11 UNK         0.1007 
     66 C          34.1241    0.8847   -6.0354 C.2       11 UNK         0.5703 
     67 N          35.2833    0.5193   -5.5053 N.am      11 UNK        -0.7361 
     68 O          33.4945    1.8280   -5.5617 O.2       11 UNK        -0.4986 
     69 C69        32.8280   -1.2174   -6.7729 C.3       12 UNK        -0.0947 
     70 S70        33.9632   -2.6193   -6.4935 S.3       12 UNK        -0.2240 
     71 C71        33.7742   -2.9232   -4.7007 C.3       12 UNK         0.0194 
     72 H72        25.8301   -3.1016    3.6120 H         1 UNK         0.0906 
     73 H73        27.4229   -2.4123    3.9354 H         1 UNK         0.0906 
     74 H74        27.2610   -3.7792    2.8321 H         1 UNK         0.0906 
     75 H75        27.4469   -3.1542    0.6879 H         1 UNK         0.3140 
     76 H76        27.1608   -0.3914   -0.1234 H         1 UNK         0.1085 
     77 H77        27.7646   -2.8641   -1.8203 H         1 UNK         0.0836 
     78 H78        27.8966   -1.2115   -2.3611 H         1 UNK         0.0836 
     79 H79        31.1580   -3.5599   -0.4057 H         1 UNK         0.0731 
     80 H80        29.5508   -4.1386   -0.7520 H         1 UNK         0.0731 
     81 H81        32.6460   -2.7230   -2.2520 H         1 UNK         0.1312 
     82 H82        31.8305   -4.2719   -6.1712 H         1 UNK         0.1406 
     83 H83        28.8922   -4.6255   -3.0840 H         1 UNK         0.1631 
     84 H84        29.8297   -5.4579   -6.6233 H         1 UNK         0.0717 
     85 H85        28.7872   -5.9619   -5.3162 H         1 UNK         0.0717 
     86 H86        29.5256   -2.1185   -5.5254 H         1 UNK         0.0934 
     87 H87        29.8572   -2.5751   -7.1827 H         1 UNK         0.0934 
     88 H88        27.8838   -1.3406   -7.9695 H         1 UNK         0.0739 
     89 H89        26.8687   -1.5885   -5.4151 H         1 UNK         0.3093 
     90 H90        25.2339    0.7440   -4.5318 H         1 UNK         0.0818 
     91 H91        22.8400    0.7486   -5.2891 H         1 UNK         0.0819 
     92 H92        23.8654    1.7505   -6.3020 H         1 UNK         0.0819 
     93 H93        23.3504    0.1739   -6.8768 H         1 UNK         0.0819 
     94 H94        24.7234   -1.2153   -3.7194 H         1 UNK         0.3041 
     95 H95        22.8751   -3.9001   -4.7381 H         1 UNK         0.0784 
     96 H96        24.9481   -4.9076   -5.7771 H         1 UNK         0.0793 
     97 H97        25.8696   -4.4284   -4.3577 H         1 UNK         0.0793 
     98 H98        24.5648   -5.6027   -4.2122 H         1 UNK         0.0793 
     99 H99        24.6631   -3.5516   -2.4855 H         1 UNK         0.3024 
    100 H100       22.7474   -1.2514   -0.7147 H         1 UNK         0.1171 
    101 H101       22.5138   -2.9579    1.0725 H         1 UNK         0.0786 
    102 H102       21.3620   -3.2782   -0.2119 H         1 UNK         0.0786 
    103 H103       22.8183   -4.2549   -0.0846 H         1 UNK         0.0786 
    104 H104       24.8663   -2.8108    0.2449 H         1 UNK         0.2977 
    105 H105       28.6244    0.7018   -5.1990 H         1 UNK         0.3127 
    106 H106       30.9665    1.9830   -6.1867 H         1 UNK         0.0770 
    107 H107       28.8275    2.9780   -4.2262 H         1 UNK         0.0814 
    108 H108       30.4192    3.6914   -4.4500 H         1 UNK         0.0814 
    109 H109       30.2800    2.0669   -3.8029 H         1 UNK         0.0814 
    110 H110       27.6165    2.3418   -7.1090 H         1 UNK         0.2983 
    111 H111       28.2351    4.7992   -8.7096 H         1 UNK         0.0947 
    112 H112       25.7609    5.0458   -8.8387 H         1 UNK         0.0806 
    113 H113       26.3060    5.0687   -7.1694 H         1 UNK         0.0806 
    114 H114       25.5412    3.6240   -7.8266 H         1 UNK         0.0806 
    115 H115       26.6855    1.5503   -8.7883 H         1 UNK         0.3000 
    116 H116       26.0859    1.6195  -11.5579 H         1 UNK         0.0850 
    117 H117       24.8443    0.2378   -9.9161 H         1 UNK         0.0810 
    118 H118       26.2640   -0.7659   -9.6411 H         1 UNK         0.0810 
    119 H119       25.4721   -0.7704  -11.2102 H         1 UNK         0.0810 
    120 H120       28.8976    0.2040   -9.8369 H         1 UNK         0.3040 
    121 H121       30.1143   -0.5879  -12.4614 H         1 UNK         0.0766 
    122 H122       29.5780   -2.5020  -10.9301 H         1 UNK         0.0812 
    123 H123       30.5515   -1.7627   -9.6603 H         1 UNK         0.0812 
    124 H124       31.3090   -2.3092  -11.1475 H         1 UNK         0.0812 
    125 H125       30.2547    1.7246  -10.0579 H         1 UNK         0.3205 
    126 H126       31.6674    3.2362   -9.2848 H         1 UNK         0.0754 
    127 H127       33.4899    2.6333  -11.6688 H         1 UNK         0.0769 
    128 H128       33.5137    4.0769  -10.6681 H         1 UNK         0.0769 
    129 H129       32.1260    3.7508  -11.6920 H         1 UNK         0.0769 
    130 H130       31.7703    0.6205   -8.1986 H         1 UNK         0.2981 
    131 H131       34.4462   -0.2548   -7.8231 H         1 UNK         0.0541 
    132 H132       35.6484    1.0358   -4.7209 H         1 UNK         0.3459 
    133 H133       35.7965   -0.2663   -5.8735 H         1 UNK         0.3459 
    134 H134       32.1335   -1.5467   -7.5471 H         1 UNK         0.0612 
    135 H135       32.2146   -1.0274   -5.8898 H         1 UNK         0.0612 
    136 H136       34.0087   -1.9978   -4.1721 H         1 UNK         0.0624 
    137 H137       34.5254   -3.6529   -4.3966 H         1 UNK         0.0624 
@<TRIPOS>BOND
     1    1    2 1    
     2    1   72 1    
     3    1   73 1    
     4    1   74 1    
     5    2    3 2    
     6    2    4 am   BACKBONE|DICT|INTERRES
     7    4    5 1    
     8    4   75 1    
     9    5    6 1    
    10    5   35 1    
    11    5   76 1    
    12    6    7 1    
    13    6   77 1    
    14    6   78 1    
    15    7    8 1    
    16    8    9 1    
    17    8   79 1    
    18    8   80 1    
    19    9   10 ar   
    20    9   14 ar   
    21   10   11 ar   
    22   10   81 1    
    23   11   12 ar   
    24   11   71 1    
    25   12   13 ar   
    26   12   82 1    
    27   13   14 ar   
    28   13   15 1    
    29   14   83 1    
    30   15   16 1    
    31   15   84 1    
    32   15   85 1    
    33   16   17 1    
    34   17   18 1    
    35   17   86 1    
    36   17   87 1    
    37   18   19 1    
    38   18   37 1    
    39   18   88 1    
    40   19   20 am   BACKBONE|DICT|INTERRES
    41   19   89 1    
    42   20   21 2    
    43   20   22 1    
    44   22   23 1    
    45   22   24 1    
    46   22   90 1    
    47   23   91 1    
    48   23   92 1    
    49   23   93 1    
    50   24   25 am   BACKBONE|DICT|INTERRES
    51   24   94 1    
    52   25   26 2    
    53   25   27 1    
    54   27   28 1    
    55   27   29 1    
    56   27   95 1    
    57   28   96 1    
    58   28   97 1    
    59   28   98 1    
    60   29   30 am   BACKBONE|DICT|INTERRES
    61   29   99 1    
    62   30   31 2    
    63   30   32 1    
    64   32   33 1    
    65   32   34 1    
    66   32  100 1    
    67   33  101 1    
    68   33  102 1    
    69   33  103 1    
    70   34   35 am   BACKBONE|DICT|INTERRES
    71   34  104 1    
    72   35   36 2    
    73   37   38 2    
    74   37   39 am   BACKBONE|DICT|INTERRES
    75   39   40 1    
    76   39  105 1    
    77   40   41 1    
    78   40   42 1    
    79   40  106 1    
    80   41  107 1    
    81   41  108 1    
    82   41  109 1    
    83   42   43 2    
    84   42   44 am   BACKBONE|DICT|INTERRES
    85   44   45 1    
    86   44  110 1    
    87   45   46 1    
    88   45   47 1    
    89   45  111 1    
    90   46  112 1    
    91   46  113 1    
    92   46  114 1    
    93   47   48 2    
    94   47   49 am   BACKBONE|DICT|INTERRES
    95   49   50 1    
    96   49  115 1    
    97   50   51 1    
    98   50   52 1    
    99   50  116 1    
   100   51  117 1    
   101   51  118 1    
   102   51  119 1    
   103   52   53 2    
   104   52   54 am   BACKBONE|DICT|INTERRES
   105   54   55 1    
   106   54  120 1    
   107   55   56 1    
   108   55   57 1    
   109   55  121 1    
   110   56  122 1    
   111   56  123 1    
   112   56  124 1    
   113   57   58 2    
   114   57   59 am   BACKBONE|DICT|INTERRES
   115   59   60 1    
   116   59  125 1    
   117   60   61 1    
   118   60   62 1    
   119   60  126 1    
   120   61  127 1    
   121   61  128 1    
   122   61  129 1    
   123   62   63 2    
   124   62   64 am   BACKBONE|DICT|INTERRES
   125   64   65 1    
   126   64  130 1    
   127   65   66 1    
   128   65   69 1    
   129   65  131 1    
   130   66   67 am   BACKBONE|DICT|INTERRES
   131   66   68 2    
   132   67  132 1    
   133   67  133 1    
   134   69   70 1    
   135   69  134 1    
   136   69  135 1    
   137   70   71 1    
   138   71  136 1    
   139   71  137 1    
@<TRIPOS>SUBSTRUCTURE
     1 UNK         1 GROUP             0       ****    0 ROOT    
