@<TRIPOS>MOLECULE
3R137
137   139    1
SMALL
USER_CHARGES


@<TRIPOS>ATOM
      1 CA         22.8541   -4.8306   -0.4561 C.3       0 UNK        -0.2020 
      2 C          24.1973   -4.1457   -0.2537 C.2       0 UNK         0.4855 
      3 O          24.2498   -3.0629    0.3310 O.2       0 UNK        -0.5197 
      4 N          25.2845   -4.7683   -0.7289 N.am      1 UNK        -0.4892 
      5 CA         26.6392   -4.2045   -0.7093 C.3       1 UNK         0.0835 
      6 C6         27.7089   -5.2917   -0.9904 C.3       12 UNK        -0.0855 
      7 S7         29.3307   -4.8798   -0.2554 S.3       12 UNK        -0.2931 
      8 C8         30.4936   -5.2818   -1.6011 C.3       12 UNK         0.0378 
      9 C9         30.5362   -4.1997   -2.6712 C.ar      12 UNK        -0.0802 
     10 C10        31.2994   -3.0439   -2.4732 C.ar      12 UNK        -0.0944 
     11 C11        31.3448   -2.0417   -3.4488 C.ar      12 UNK        -0.0787 
     12 C12        30.6106   -2.2064   -4.6280 C.ar      12 UNK        -0.0862 
     13 C13        29.8562   -3.3625   -4.8460 C.ar      12 UNK        -0.0733 
     14 C14        29.8297   -4.3595   -3.8664 C.ar      12 UNK        -0.0832 
     15 C15        29.0660   -3.5293   -6.1358 C.3       12 UNK         0.0240 
     16 S16        27.2827   -3.6160   -5.7961 S.3       12 UNK        -0.2522 
     17 C17        26.5561   -3.0004   -7.3546 C.3       12 UNK        -0.0967 
     18 CA         26.1102   -1.5116   -7.2769 C.3       5 UNK         0.0660 
     19 N          25.2557   -1.2473   -6.1073 N.am      5 UNK        -0.4015 
     20 C          23.9648   -1.6200   -6.0799 C.2       4 UNK         0.4946 
     21 O          23.3411   -1.9598   -7.0878 O.2       4 UNK        -0.5353 
     22 CA         23.2275   -1.6926   -4.7300 C.3       4 UNK         0.0277 
     23 CB         22.9983   -3.1615   -4.3322 C.3       4 UNK        -0.1981 
     24 N          23.9272   -1.0205   -3.6385 N.am      4 UNK        -0.4209 
     25 C          23.7288    0.2595   -3.2935 C.2       3 UNK         0.4942 
     26 O          22.9270    1.0020   -3.8620 O.2       3 UNK        -0.5208 
     27 CA         24.5553    0.8235   -2.1199 C.3       3 UNK         0.0250 
     28 CB         23.7034    0.8650   -0.8406 C.3       3 UNK        -0.1990 
     29 N          25.8015    0.1058   -1.8348 N.am      3 UNK        -0.4232 
     30 C          26.7939   -0.0992   -2.7104 C.2       2 UNK         0.4993 
     31 O          26.7527    0.2603   -3.8867 O.2       2 UNK        -0.5286 
     32 CA         27.9964   -0.9154   -2.2142 C.3       2 UNK         0.0209 
     33 CB         28.9743   -0.0182   -1.4378 C.3       2 UNK        -0.1931 
     34 N          27.6484   -2.0757   -1.3868 N.am      2 UNK        -0.4546 
     35 C          26.7518   -3.0233   -1.6953 C.2       1 UNK         0.5154 
     36 O          26.0334   -2.9923   -2.6980 O.2       1 UNK        -0.5181 
     37 C          27.3111   -0.5661   -7.4677 C.2       5 UNK         0.5014 
     38 O          27.8713   -0.5779   -8.5658 O.2       5 UNK        -0.5248 
     39 N          27.7261    0.2177   -6.4597 N.am      6 UNK        -0.4434 
     40 CA         28.9682    1.0054   -6.4973 C.3       6 UNK         0.0363 
     41 CB         29.2075    1.6974   -5.1480 C.3       6 UNK        -0.1936 
     42 C          29.0655    2.0248   -7.6403 C.2       6 UNK         0.5081 
     43 O          30.1549    2.2054   -8.1838 O.2       6 UNK        -0.5248 
     44 N          27.9312    2.6321   -8.0111 N.am      7 UNK        -0.4718 
     45 CA         27.8251    3.5715   -9.1309 C.3       7 UNK         0.0273 
     46 CB         26.4653    4.2853   -9.0663 C.3       7 UNK        -0.1935 
     47 C          28.0213    2.9101  -10.5077 C.2       7 UNK         0.5018 
     48 O          28.4949    3.5759  -11.4287 O.2       7 UNK        -0.5186 
     49 N          27.6630    1.6238  -10.6242 N.am      8 UNK        -0.4240 
     50 CA         27.8523    0.8194  -11.8323 C.3       8 UNK         0.0235 
     51 CB         26.7663   -0.2673  -11.9040 C.3       8 UNK        -0.2000 
     52 C          29.2532    0.1921  -11.8665 C.2       8 UNK         0.4941 
     53 O          29.8876    0.1813  -12.9216 O.2       8 UNK        -0.5273 
     54 N          29.7118   -0.3095  -10.7113 N.am      9 UNK        -0.4262 
     55 CA         31.0196   -0.9434  -10.5308 C.3       9 UNK         0.0264 
     56 CB         31.0058   -1.7320   -9.2101 C.3       9 UNK        -0.1955 
     57 C          32.2041    0.0407  -10.5502 C.2       9 UNK         0.5031 
     58 O          33.3339   -0.4016  -10.7624 O.2       9 UNK        -0.5390 
     59 N          31.9353    1.3314  -10.2957 N.am      10 UNK        -0.4204 
     60 CA         32.8989    2.4159  -10.0582 C.3       10 UNK         0.0237 
     61 CB         33.7573    2.7002  -11.3096 C.3       10 UNK        -0.1985 
     62 C          33.7294    2.1625   -8.7837 C.2       10 UNK         0.4970 
     63 O          34.9421    2.3822   -8.7718 O.2       10 UNK        -0.4914 
     64 N          33.0465    1.6756   -7.7423 N.am      11 UNK        -0.4285 
     65 CA         33.6122    1.3296   -6.4360 C.3       11 UNK         0.1007 
     66 C          33.7209    2.5890   -5.5361 C.2       11 UNK         0.5703 
     67 N          34.8464    2.7816   -4.8621 N.am      11 UNK        -0.7361 
     68 O          32.7829    3.3762   -5.4246 O.2       11 UNK        -0.4986 
     69 C69        32.7661    0.2047   -5.7896 C.3       12 UNK        -0.0947 
     70 S70        33.5614   -0.6035   -4.3601 S.3       12 UNK        -0.2240 
     71 C71        32.1580   -0.7729   -3.2069 C.3       12 UNK         0.0194 
     72 H72        22.9451   -5.7416   -1.0473 H         1 UNK         0.0906 
     73 H73        22.4175   -5.0921    0.5074 H         1 UNK         0.0906 
     74 H74        22.1660   -4.1608   -0.9710 H         1 UNK         0.0906 
     75 H75        25.1771   -5.6368   -1.2332 H         1 UNK         0.3140 
     76 H76        26.7974   -3.8151    0.2995 H         1 UNK         0.1085 
     77 H77        27.4039   -6.2393   -0.5431 H         1 UNK         0.0836 
     78 H78        27.8023   -5.4891   -2.0598 H         1 UNK         0.0836 
     79 H79        31.4906   -5.4026   -1.1746 H         1 UNK         0.0731 
     80 H80        30.2340   -6.2490   -2.0347 H         1 UNK         0.0731 
     81 H81        31.8509   -2.9235   -1.5506 H         1 UNK         0.1312 
     82 H82        30.6229   -1.4340   -5.3796 H         1 UNK         0.1406 
     83 H83        29.2434   -5.2527   -4.0337 H         1 UNK         0.1631 
     84 H84        29.2705   -2.7014   -6.8153 H         1 UNK         0.0717 
     85 H85        29.3825   -4.4384   -6.6487 H         1 UNK         0.0717 
     86 H86        27.2415   -3.1766   -8.1865 H         1 UNK         0.0934 
     87 H87        25.6863   -3.6226   -7.5706 H         1 UNK         0.0934 
     88 H88        25.5082   -1.3164   -8.1673 H         1 UNK         0.0739 
     89 H89        25.7123   -0.9660   -5.2476 H         1 UNK         0.3093 
     90 H90        22.2474   -1.2322   -4.8727 H         1 UNK         0.0818 
     91 H91        22.4485   -3.2383   -3.3943 H         1 UNK         0.0819 
     92 H92        22.4172   -3.6868   -5.0913 H         1 UNK         0.0819 
     93 H93        23.9399   -3.6997   -4.2152 H         1 UNK         0.0819 
     94 H94        24.6281   -1.5681   -3.1467 H         1 UNK         0.3041 
     95 H95        24.8268    1.8471   -2.3859 H         1 UNK         0.0784 
     96 H96        22.7740    1.4121   -1.0057 H         1 UNK         0.0793 
     97 H97        23.4364   -0.1378   -0.5032 H         1 UNK         0.0793 
     98 H98        24.2300    1.3648   -0.0273 H         1 UNK         0.0793 
     99 H99        25.9050   -0.2716   -0.9038 H         1 UNK         0.3024 
    100 H100       28.5008   -1.3000   -3.1012 H         1 UNK         0.1171 
    101 H101       29.8904   -0.5534   -1.1886 H         1 UNK         0.0786 
    102 H102       29.2600    0.8576   -2.0207 H         1 UNK         0.0786 
    103 H103       28.5367    0.3435   -0.5066 H         1 UNK         0.0786 
    104 H104       28.2074   -2.2100   -0.5561 H         1 UNK         0.2977 
    105 H105       27.2408    0.2095   -5.5629 H         1 UNK         0.3127 
    106 H106       29.7790    0.2957   -6.6585 H         1 UNK         0.0770 
    107 H107       28.3618    2.3220   -4.8584 H         1 UNK         0.0814 
    108 H108       30.0897    2.3388   -5.1798 H         1 UNK         0.0814 
    109 H109       29.3730    0.9642   -4.3611 H         1 UNK         0.0814 
    110 H110       27.0845    2.4166   -7.5044 H         1 UNK         0.2983 
    111 H111       28.6115    4.3211   -9.0164 H         1 UNK         0.0947 
    112 H112       26.3676    5.0116   -9.8745 H         1 UNK         0.0806 
    113 H113       26.3465    4.8293   -8.1290 H         1 UNK         0.0806 
    114 H114       25.6350    3.5838   -9.1567 H         1 UNK         0.0806 
    115 H115       27.3444    1.1338   -9.7979 H         1 UNK         0.3000 
    116 H116       27.7476    1.4582  -12.7123 H         1 UNK         0.0850 
    117 H117       26.8762   -0.8671  -12.8085 H         1 UNK         0.0810 
    118 H118       25.7688    0.1717  -11.9265 H         1 UNK         0.0810 
    119 H119       26.8126   -0.9492  -11.0541 H         1 UNK         0.0810 
    120 H120       29.0896   -0.3127   -9.9045 H         1 UNK         0.3040 
    121 H121       31.1701   -1.6500  -11.3497 H         1 UNK         0.0766 
    122 H122       30.2240   -2.4917   -9.2115 H         1 UNK         0.0812 
    123 H123       30.8363   -1.0788   -8.3544 H         1 UNK         0.0812 
    124 H124       31.9553   -2.2441   -9.0475 H         1 UNK         0.0812 
    125 H125       30.9773    1.5609  -10.0573 H         1 UNK         0.3205 
    126 H126       32.3048    3.3091   -9.8589 H         1 UNK         0.0754 
    127 H127       34.3664    3.5938  -11.1679 H         1 UNK         0.0769 
    128 H128       33.1333    2.8690  -12.1872 H         1 UNK         0.0769 
    129 H129       34.4375    1.8783  -11.5342 H         1 UNK         0.0769 
    130 H130       32.0352    1.6475   -7.8171 H         1 UNK         0.2981 
    131 H131       34.6163    0.9338   -6.6030 H         1 UNK         0.0541 
    132 H132       35.6127    2.1305   -4.9333 H         1 UNK         0.3459 
    133 H133       34.9281    3.5893   -4.2649 H         1 UNK         0.3459 
    134 H134       31.7937    0.5970   -5.4977 H         1 UNK         0.0612 
    135 H135       32.5733   -0.5789   -6.5240 H         1 UNK         0.0612 
    136 H136       31.5097    0.1016   -3.2689 H         1 UNK         0.0624 
    137 H137       32.5590   -0.7731   -2.1924 H         1 UNK         0.0624 
@<TRIPOS>BOND
     1    1    2 1    
     2    1   72 1    
     3    1   73 1    
     4    1   74 1    
     5    2    3 2    
     6    2    4 am   BACKBONE|DICT|INTERRES
     7    4    5 1    
     8    4   75 1    
     9    5    6 1    
    10    5   35 1    
    11    5   76 1    
    12    6    7 1    
    13    6   77 1    
    14    6   78 1    
    15    7    8 1    
    16    8    9 1    
    17    8   79 1    
    18    8   80 1    
    19    9   10 ar   
    20    9   14 ar   
    21   10   11 ar   
    22   10   81 1    
    23   11   12 ar   
    24   11   71 1    
    25   12   13 ar   
    26   12   82 1    
    27   13   14 ar   
    28   13   15 1    
    29   14   83 1    
    30   15   16 1    
    31   15   84 1    
    32   15   85 1    
    33   16   17 1    
    34   17   18 1    
    35   17   86 1    
    36   17   87 1    
    37   18   19 1    
    38   18   37 1    
    39   18   88 1    
    40   19   20 am   BACKBONE|DICT|INTERRES
    41   19   89 1    
    42   20   21 2    
    43   20   22 1    
    44   22   23 1    
    45   22   24 1    
    46   22   90 1    
    47   23   91 1    
    48   23   92 1    
    49   23   93 1    
    50   24   25 am   BACKBONE|DICT|INTERRES
    51   24   94 1    
    52   25   26 2    
    53   25   27 1    
    54   27   28 1    
    55   27   29 1    
    56   27   95 1    
    57   28   96 1    
    58   28   97 1    
    59   28   98 1    
    60   29   30 am   BACKBONE|DICT|INTERRES
    61   29   99 1    
    62   30   31 2    
    63   30   32 1    
    64   32   33 1    
    65   32   34 1    
    66   32  100 1    
    67   33  101 1    
    68   33  102 1    
    69   33  103 1    
    70   34   35 am   BACKBONE|DICT|INTERRES
    71   34  104 1    
    72   35   36 2    
    73   37   38 2    
    74   37   39 am   BACKBONE|DICT|INTERRES
    75   39   40 1    
    76   39  105 1    
    77   40   41 1    
    78   40   42 1    
    79   40  106 1    
    80   41  107 1    
    81   41  108 1    
    82   41  109 1    
    83   42   43 2    
    84   42   44 am   BACKBONE|DICT|INTERRES
    85   44   45 1    
    86   44  110 1    
    87   45   46 1    
    88   45   47 1    
    89   45  111 1    
    90   46  112 1    
    91   46  113 1    
    92   46  114 1    
    93   47   48 2    
    94   47   49 am   BACKBONE|DICT|INTERRES
    95   49   50 1    
    96   49  115 1    
    97   50   51 1    
    98   50   52 1    
    99   50  116 1    
   100   51  117 1    
   101   51  118 1    
   102   51  119 1    
   103   52   53 2    
   104   52   54 am   BACKBONE|DICT|INTERRES
   105   54   55 1    
   106   54  120 1    
   107   55   56 1    
   108   55   57 1    
   109   55  121 1    
   110   56  122 1    
   111   56  123 1    
   112   56  124 1    
   113   57   58 2    
   114   57   59 am   BACKBONE|DICT|INTERRES
   115   59   60 1    
   116   59  125 1    
   117   60   61 1    
   118   60   62 1    
   119   60  126 1    
   120   61  127 1    
   121   61  128 1    
   122   61  129 1    
   123   62   63 2    
   124   62   64 am   BACKBONE|DICT|INTERRES
   125   64   65 1    
   126   64  130 1    
   127   65   66 1    
   128   65   69 1    
   129   65  131 1    
   130   66   67 am   BACKBONE|DICT|INTERRES
   131   66   68 2    
   132   67  132 1    
   133   67  133 1    
   134   69   70 1    
   135   69  134 1    
   136   69  135 1    
   137   70   71 1    
   138   71  136 1    
   139   71  137 1    
@<TRIPOS>SUBSTRUCTURE
     1 UNK         1 GROUP             0       ****    0 ROOT    
