@<TRIPOS>MOLECULE
3R137
137   139    1
SMALL
USER_CHARGES


@<TRIPOS>ATOM
      1 CA         24.9451   -7.0385   -0.8025 C.3       0 UNK        -0.2020 
      2 C          25.5146   -5.8038   -0.1205 C.2       0 UNK         0.4855 
      3 O          25.0542   -5.4327    0.9593 O.2       0 UNK        -0.5197 
      4 N          26.5122   -5.1629   -0.7435 N.am      1 UNK        -0.4892 
      5 CA         27.1945   -3.9645   -0.2290 C.3       1 UNK         0.0835 
      6 C6         28.5627   -3.7393   -0.9178 C.3       12 UNK        -0.0855 
      7 S7         29.6535   -5.2036   -0.8185 S.3       12 UNK        -0.2931 
      8 C8         31.2363   -4.5469   -1.4508 C.3       12 UNK         0.0378 
      9 C9         31.0850   -3.7859   -2.7632 C.ar      12 UNK        -0.0802 
     10 C10        31.6031   -2.4915   -2.8830 C.ar      12 UNK        -0.0944 
     11 C11        31.4258   -1.7595   -4.0606 C.ar      12 UNK        -0.0787 
     12 C12        30.7006   -2.3295   -5.1112 C.ar      12 UNK        -0.0862 
     13 C13        30.1963   -3.6282   -5.0167 C.ar      12 UNK        -0.0733 
     14 C14        30.4104   -4.3604   -3.8468 C.ar      12 UNK        -0.0832 
     15 C15        29.4244   -4.2325   -6.1821 C.3       12 UNK         0.0240 
     16 S16        27.6846   -4.6067   -5.7806 S.3       12 UNK        -0.2522 
     17 C17        27.0328   -3.0158   -5.1709 C.3       12 UNK        -0.0967 
     18 CA         26.6275   -2.0322   -6.3044 C.3       5 UNK         0.0660 
     19 N          25.3735   -1.3364   -6.0064 N.am      5 UNK        -0.4015 
     20 C          24.6594   -0.6337   -6.8992 C.2       4 UNK         0.4946 
     21 O          24.9481   -0.5536   -8.0928 O.2       4 UNK        -0.5353 
     22 CA         23.4416    0.1469   -6.3700 C.3       4 UNK         0.0277 
     23 CB         22.1769   -0.7241   -6.4320 C.3       4 UNK        -0.1981 
     24 N          23.6244    0.6458   -5.0043 N.am      4 UNK        -0.4209 
     25 C          24.5554    1.5393   -4.6380 C.2       3 UNK         0.4942 
     26 O          25.3003    2.1078   -5.4334 O.2       3 UNK        -0.5208 
     27 CA         24.7302    1.7992   -3.1303 C.3       3 UNK         0.0250 
     28 CB         23.9171    3.0302   -2.7003 C.3       3 UNK        -0.1990 
     29 N          24.3756    0.6550   -2.2804 N.am      3 UNK        -0.4232 
     30 C          24.9486   -0.5556   -2.3398 C.2       2 UNK         0.4993 
     31 O          25.8404   -0.8529   -3.1399 O.2       2 UNK        -0.5286 
     32 CA         24.3512   -1.6299   -1.4190 C.3       2 UNK         0.0209 
     33 CB         23.0709   -2.2094   -2.0451 C.3       2 UNK        -0.1931 
     34 N          25.2870   -2.7279   -1.1810 N.am      2 UNK        -0.4546 
     35 C          26.3239   -2.6910   -0.3328 C.2       1 UNK         0.5154 
     36 O          26.5974   -1.7119    0.3639 O.2       1 UNK        -0.5181 
     37 C          27.7416   -1.0086   -6.5902 C.2       5 UNK         0.5014 
     38 O          28.4447   -1.1323   -7.5931 O.2       5 UNK        -0.5248 
     39 N          27.8500    0.0070   -5.7203 N.am      6 UNK        -0.4434 
     40 CA         28.8100    1.1079   -5.8347 C.3       6 UNK         0.0363 
     41 CB         28.7862    1.9415   -4.5435 C.3       6 UNK        -0.1936 
     42 C          28.5845    2.0051   -7.0640 C.2       6 UNK         0.5081 
     43 O          29.5479    2.5758   -7.5714 O.2       6 UNK        -0.5248 
     44 N          27.3299    2.1188   -7.5179 N.am      7 UNK        -0.4718 
     45 CA         26.9575    2.8008   -8.7570 C.3       7 UNK         0.0273 
     46 CB         25.4561    3.1286   -8.7257 C.3       7 UNK        -0.1935 
     47 C          27.3054    1.9780  -10.0100 C.2       7 UNK         0.5018 
     48 O          27.6817    2.5649  -11.0254 O.2       7 UNK        -0.5186 
     49 N          27.1506    0.6482   -9.9302 N.am      8 UNK        -0.4240 
     50 CA         27.4294   -0.2851  -11.0228 C.3       8 UNK         0.0235 
     51 CB         26.7103   -1.6189  -10.7595 C.3       8 UNK        -0.2000 
     52 C          28.9338   -0.5109  -11.2414 C.2       8 UNK         0.4941 
     53 O          29.3918   -0.4618  -12.3844 O.2       8 UNK        -0.5273 
     54 N          29.6682   -0.7750  -10.1539 N.am      9 UNK        -0.4262 
     55 CA         31.1149   -0.9977  -10.1628 C.3       9 UNK         0.0264 
     56 CB         31.4909   -1.8120   -8.9163 C.3       9 UNK        -0.1955 
     57 C          31.8956    0.3261  -10.1890 C.2       9 UNK         0.5031 
     58 O          31.3458    1.3854   -9.8834 O.2       9 UNK        -0.5390 
     59 N          33.1951    0.2419  -10.4975 N.am      10 UNK        -0.4204 
     60 CA         34.1323    1.3707  -10.5146 C.3       10 UNK         0.0237 
     61 CB         35.2886    1.0403  -11.4784 C.3       10 UNK        -0.1985 
     62 C          34.6263    1.7574   -9.1021 C.2       10 UNK         0.4970 
     63 O          35.8327    1.9026   -8.8950 O.2       10 UNK        -0.4914 
     64 N          33.6944    1.9119   -8.1534 N.am      11 UNK        -0.4285 
     65 CA         33.9682    2.3198   -6.7638 C.3       11 UNK         0.1007 
     66 C          34.1685    3.8528   -6.5811 C.2       11 UNK         0.5703 
     67 N          33.9104    4.6867   -7.5824 N.am      11 UNK        -0.7361 
     68 O          34.5814    4.2941   -5.5112 O.2       11 UNK        -0.4986 
     69 C69        32.9010    1.7738   -5.7787 C.3       12 UNK        -0.0947 
     70 S70        32.8378   -0.0467   -5.7586 S.3       12 UNK        -0.2240 
     71 C71        31.9801   -0.3428   -4.1763 C.3       12 UNK         0.0194 
     72 H72        23.8837   -6.8989   -1.0062 H         1 UNK         0.0906 
     73 H73        25.4464   -7.2517   -1.7465 H         1 UNK         0.0906 
     74 H74        25.0564   -7.9086   -0.1561 H         1 UNK         0.0906 
     75 H75        26.8788   -5.5309   -1.6105 H         1 UNK         0.3140 
     76 H76        27.3821   -4.1228    0.8356 H         1 UNK         0.1085 
     77 H77        29.0833   -2.8927   -0.4651 H         1 UNK         0.0836 
     78 H78        28.4154   -3.4823   -1.9687 H         1 UNK         0.0836 
     79 H79        31.6745   -3.9079   -0.6825 H         1 UNK         0.0731 
     80 H80        31.9314   -5.3745   -1.5973 H         1 UNK         0.0731 
     81 H81        32.1346   -2.0469   -2.0526 H         1 UNK         0.1312 
     82 H82        30.5314   -1.7571   -6.0095 H         1 UNK         0.1406 
     83 H83        30.0134   -5.3632   -3.7639 H         1 UNK         0.1631 
     84 H84        29.9172   -5.1551   -6.4910 H         1 UNK         0.0717 
     85 H85        29.4497   -3.5736   -7.0504 H         1 UNK         0.0717 
     86 H86        26.1555   -3.2759   -4.5764 H         1 UNK         0.0934 
     87 H87        27.7242   -2.5713   -4.4518 H         1 UNK         0.0934 
     88 H88        26.4603   -2.6000   -7.2225 H         1 UNK         0.0739 
     89 H89        25.1240   -1.2823   -5.0260 H         1 UNK         0.3093 
     90 H90        23.2960    1.0100   -7.0230 H         1 UNK         0.0818 
     91 H91        21.2908   -0.1590   -6.1425 H         1 UNK         0.0819 
     92 H92        22.0071   -1.0916   -7.4452 H         1 UNK         0.0819 
     93 H93        22.2503   -1.5942   -5.7781 H         1 UNK         0.0819 
     94 H94        23.0396    0.2435   -4.2869 H         1 UNK         0.3041 
     95 H95        25.7876    2.0128   -2.9617 H         1 UNK         0.0784 
     96 H96        24.1807    3.9010   -3.3026 H         1 UNK         0.0793 
     97 H97        22.8446    2.8676   -2.8147 H         1 UNK         0.0793 
     98 H98        24.1096    3.2901   -1.6592 H         1 UNK         0.0793 
     99 H99        23.6373    0.8101   -1.6081 H         1 UNK         0.3024 
    100 H100       24.1039   -1.1696   -0.4593 H         1 UNK         0.1171 
    101 H101       22.3166   -1.4356   -2.1941 H         1 UNK         0.0786 
    102 H102       22.6252   -2.9686   -1.4016 H         1 UNK         0.0786 
    103 H103       23.2656   -2.6673   -3.0160 H         1 UNK         0.0786 
    104 H104       25.1565   -3.5669   -1.7258 H         1 UNK         0.2977 
    105 H105       27.2240    0.0280   -4.9255 H         1 UNK         0.3127 
    106 H106       29.7998    0.6638   -5.9464 H         1 UNK         0.0770 
    107 H107       27.8343    2.4575   -4.4155 H         1 UNK         0.0814 
    108 H108       29.5677    2.7022   -4.5601 H         1 UNK         0.0814 
    109 H109       28.9528    1.3224   -3.6620 H         1 UNK         0.0814 
    110 H110       26.5777    1.7303   -6.9586 H         1 UNK         0.2983 
    111 H111       27.5107    3.7411   -8.8128 H         1 UNK         0.0947 
    112 H112       25.1574    3.6747   -9.6215 H         1 UNK         0.0806 
    113 H113       25.2038    3.7503   -7.8664 H         1 UNK         0.0806 
    114 H114       24.8467    2.2257   -8.6752 H         1 UNK         0.0806 
    115 H115       26.8013    0.2493   -9.0671 H         1 UNK         0.3000 
    116 H116       27.0214    0.1376  -11.9436 H         1 UNK         0.0850 
    117 H117       26.8989   -2.3307  -11.5642 H         1 UNK         0.0810 
    118 H118       25.6309   -1.4794  -10.6958 H         1 UNK         0.0810 
    119 H119       27.0407   -2.0814   -9.8287 H         1 UNK         0.0810 
    120 H120       29.2119   -0.7852   -9.2432 H         1 UNK         0.3040 
    121 H121       31.3792   -1.5749  -11.0516 H         1 UNK         0.0766 
    122 H122       32.5515   -2.0652   -8.9053 H         1 UNK         0.0812 
    123 H123       30.9331   -2.7469   -8.8668 H         1 UNK         0.0812 
    124 H124       31.2824   -1.2456   -8.0106 H         1 UNK         0.0812 
    125 H125       33.5880   -0.6680  -10.6932 H         1 UNK         0.3205 
    126 H126       33.6156    2.2457  -10.9150 H         1 UNK         0.0754 
    127 H127       35.9743    1.8836  -11.5727 H         1 UNK         0.0769 
    128 H128       34.9192    0.8160  -12.4794 H         1 UNK         0.0769 
    129 H129       35.8694    0.1835  -11.1345 H         1 UNK         0.0769 
    130 H130       32.7200    1.7988   -8.4136 H         1 UNK         0.2981 
    131 H131       34.9208    1.8733   -6.4721 H         1 UNK         0.0541 
    132 H132       33.5640    4.3384   -8.4614 H         1 UNK         0.3459 
    133 H133       34.0515    5.6757   -7.4499 H         1 UNK         0.3459 
    134 H134       31.9116    2.1563   -6.0345 H         1 UNK         0.0612 
    135 H135       33.1108    2.1114   -4.7618 H         1 UNK         0.0612 
    136 H136       31.1593    0.3634   -4.0636 H         1 UNK         0.0624 
    137 H137       32.6790   -0.1350   -3.3647 H         1 UNK         0.0624 
@<TRIPOS>BOND
     1    1    2 1    
     2    1   72 1    
     3    1   73 1    
     4    1   74 1    
     5    2    3 2    
     6    2    4 am   BACKBONE|DICT|INTERRES
     7    4    5 1    
     8    4   75 1    
     9    5    6 1    
    10    5   35 1    
    11    5   76 1    
    12    6    7 1    
    13    6   77 1    
    14    6   78 1    
    15    7    8 1    
    16    8    9 1    
    17    8   79 1    
    18    8   80 1    
    19    9   10 ar   
    20    9   14 ar   
    21   10   11 ar   
    22   10   81 1    
    23   11   12 ar   
    24   11   71 1    
    25   12   13 ar   
    26   12   82 1    
    27   13   14 ar   
    28   13   15 1    
    29   14   83 1    
    30   15   16 1    
    31   15   84 1    
    32   15   85 1    
    33   16   17 1    
    34   17   18 1    
    35   17   86 1    
    36   17   87 1    
    37   18   19 1    
    38   18   37 1    
    39   18   88 1    
    40   19   20 am   BACKBONE|DICT|INTERRES
    41   19   89 1    
    42   20   21 2    
    43   20   22 1    
    44   22   23 1    
    45   22   24 1    
    46   22   90 1    
    47   23   91 1    
    48   23   92 1    
    49   23   93 1    
    50   24   25 am   BACKBONE|DICT|INTERRES
    51   24   94 1    
    52   25   26 2    
    53   25   27 1    
    54   27   28 1    
    55   27   29 1    
    56   27   95 1    
    57   28   96 1    
    58   28   97 1    
    59   28   98 1    
    60   29   30 am   BACKBONE|DICT|INTERRES
    61   29   99 1    
    62   30   31 2    
    63   30   32 1    
    64   32   33 1    
    65   32   34 1    
    66   32  100 1    
    67   33  101 1    
    68   33  102 1    
    69   33  103 1    
    70   34   35 am   BACKBONE|DICT|INTERRES
    71   34  104 1    
    72   35   36 2    
    73   37   38 2    
    74   37   39 am   BACKBONE|DICT|INTERRES
    75   39   40 1    
    76   39  105 1    
    77   40   41 1    
    78   40   42 1    
    79   40  106 1    
    80   41  107 1    
    81   41  108 1    
    82   41  109 1    
    83   42   43 2    
    84   42   44 am   BACKBONE|DICT|INTERRES
    85   44   45 1    
    86   44  110 1    
    87   45   46 1    
    88   45   47 1    
    89   45  111 1    
    90   46  112 1    
    91   46  113 1    
    92   46  114 1    
    93   47   48 2    
    94   47   49 am   BACKBONE|DICT|INTERRES
    95   49   50 1    
    96   49  115 1    
    97   50   51 1    
    98   50   52 1    
    99   50  116 1    
   100   51  117 1    
   101   51  118 1    
   102   51  119 1    
   103   52   53 2    
   104   52   54 am   BACKBONE|DICT|INTERRES
   105   54   55 1    
   106   54  120 1    
   107   55   56 1    
   108   55   57 1    
   109   55  121 1    
   110   56  122 1    
   111   56  123 1    
   112   56  124 1    
   113   57   58 2    
   114   57   59 am   BACKBONE|DICT|INTERRES
   115   59   60 1    
   116   59  125 1    
   117   60   61 1    
   118   60   62 1    
   119   60  126 1    
   120   61  127 1    
   121   61  128 1    
   122   61  129 1    
   123   62   63 2    
   124   62   64 am   BACKBONE|DICT|INTERRES
   125   64   65 1    
   126   64  130 1    
   127   65   66 1    
   128   65   69 1    
   129   65  131 1    
   130   66   67 am   BACKBONE|DICT|INTERRES
   131   66   68 2    
   132   67  132 1    
   133   67  133 1    
   134   69   70 1    
   135   69  134 1    
   136   69  135 1    
   137   70   71 1    
   138   71  136 1    
   139   71  137 1    
@<TRIPOS>SUBSTRUCTURE
     1 UNK         1 GROUP             0       ****    0 ROOT    
