@<TRIPOS>MOLECULE
3R137
137   139    1
SMALL
USER_CHARGES


@<TRIPOS>ATOM
      1 CA         25.9869   -8.0915   -0.7679 C.3       0 UNK        -0.2020 
      2 C          26.1490   -6.5789   -0.7757 C.2       0 UNK         0.4855 
      3 O          25.6395   -5.9048    0.1197 O.2       0 UNK        -0.5197 
      4 N          26.8568   -6.0422   -1.7788 N.am      1 UNK        -0.4892 
      5 CA         27.1191   -4.6054   -1.9547 C.3       1 UNK         0.0835 
      6 C6         28.2619   -4.3601   -2.9715 C.3       12 UNK        -0.0855 
      7 S7         29.8474   -4.9909   -2.3119 S.3       12 UNK        -0.2931 
      8 C8         31.0885   -4.1611   -3.3664 C.3       12 UNK         0.0378 
      9 C9         31.3576   -2.6796   -3.0807 C.ar      12 UNK        -0.0802 
     10 C10        32.4062   -2.0581   -3.7662 C.ar      12 UNK        -0.0944 
     11 C11        32.6770   -0.6978   -3.5912 C.ar      12 UNK        -0.0787 
     12 C12        31.8742    0.0583   -2.7315 C.ar      12 UNK        -0.0862 
     13 C13        30.8199   -0.5441   -2.0393 C.ar      12 UNK        -0.0733 
     14 C14        30.5921   -1.9156   -2.1903 C.ar      12 UNK        -0.0832 
     15 C15        29.9098    0.2818   -1.1380 C.3       12 UNK         0.0240 
     16 S16        28.6789    1.2553   -2.0746 S.3       12 UNK        -0.2522 
     17 C17        27.7527   -0.0278   -2.9989 C.3       12 UNK        -0.0967 
     18 CA         27.3333    0.3555   -4.4410 C.3       5 UNK         0.0660 
     19 N          26.1932    1.2774   -4.4542 N.am      5 UNK        -0.4015 
     20 C          25.5525    1.7047   -5.5503 C.2       4 UNK         0.4946 
     21 O          25.9532    1.5309   -6.7028 O.2       4 UNK        -0.5353 
     22 CA         24.1837    2.3598   -5.3242 C.3       4 UNK         0.0277 
     23 CB         23.8836    3.4447   -6.3745 C.3       4 UNK        -0.1981 
     24 N          23.1648    1.3138   -5.4030 N.am      4 UNK        -0.4209 
     25 C          22.9306    0.4073   -4.4444 C.2       3 UNK         0.4942 
     26 O          23.4108    0.4832   -3.3103 O.2       3 UNK        -0.5208 
     27 CA         21.9951   -0.7665   -4.7978 C.3       3 UNK         0.0250 
     28 CB         21.8718   -1.0381   -6.3161 C.3       3 UNK        -0.1990 
     29 N          22.3540   -1.9962   -4.0787 N.am      3 UNK        -0.4232 
     30 C          23.4927   -2.7021   -4.1729 C.2       2 UNK         0.4993 
     31 O          24.4239   -2.4365   -4.9372 O.2       2 UNK        -0.5286 
     32 CA         23.5500   -3.9650   -3.2925 C.3       2 UNK         0.0209 
     33 CB         22.7447   -5.1054   -3.9401 C.3       2 UNK        -0.1931 
     34 N          24.9037   -4.4553   -3.0160 N.am      2 UNK        -0.4546 
     35 C          25.8414   -3.8101   -2.3069 C.2       1 UNK         0.5154 
     36 O          25.7076   -2.6655   -1.8732 O.2       1 UNK        -0.5181 
     37 C          28.5149    0.7913   -5.3343 C.2       5 UNK         0.5014 
     38 O          29.0740   -0.0422   -6.0477 O.2       5 UNK        -0.5248 
     39 N          28.8172    2.0980   -5.3291 N.am      6 UNK        -0.4434 
     40 CA         29.8635    2.7212   -6.1388 C.3       6 UNK         0.0363 
     41 CB         30.0578    4.1786   -5.6949 C.3       6 UNK        -0.1936 
     42 C          29.6056    2.6459   -7.6518 C.2       6 UNK         0.5081 
     43 O          30.5627    2.5375   -8.4188 O.2       6 UNK        -0.5248 
     44 N          28.3298    2.6955   -8.0552 N.am      7 UNK        -0.4718 
     45 CA         27.9052    2.5435   -9.4455 C.3       7 UNK         0.0273 
     46 CB         26.5730    3.2787   -9.6648 C.3       7 UNK        -0.1935 
     47 C          27.7814    1.0615   -9.8227 C.2       7 UNK         0.5018 
     48 O          28.2042    0.6840  -10.9148 O.2       7 UNK        -0.5186 
     49 N          27.2304    0.2495   -8.9080 N.am      8 UNK        -0.4240 
     50 CA         27.0272   -1.1920   -9.0721 C.3       8 UNK         0.0235 
     51 CB         26.2007   -1.7352   -7.8956 C.3       8 UNK        -0.2000 
     52 C          28.3418   -1.9743   -9.2266 C.2       8 UNK         0.4941 
     53 O          28.4426   -2.8094  -10.1262 O.2       8 UNK        -0.5273 
     54 N          29.3302   -1.6760   -8.3715 N.am      9 UNK        -0.4262 
     55 CA         30.6752   -2.2563   -8.4358 C.3       9 UNK         0.0264 
     56 CB         31.2779   -2.2721   -7.0233 C.3       9 UNK        -0.1955 
     57 C          31.6064   -1.5158   -9.4141 C.2       9 UNK         0.5031 
     58 O          32.6909   -2.0242   -9.7006 O.2       9 UNK        -0.5390 
     59 N          31.1842   -0.3342   -9.8909 N.am      10 UNK        -0.4204 
     60 CA         31.8871    0.5785  -10.8041 C.3       10 UNK         0.0237 
     61 CB         32.0945   -0.0749  -12.1871 C.3       10 UNK        -0.1985 
     62 C          33.1875    1.1806  -10.2291 C.2       10 UNK         0.4970 
     63 O          34.0200    1.6703  -10.9947 O.2       10 UNK        -0.4914 
     64 N          33.3343    1.1558   -8.8996 N.am      11 UNK        -0.4285 
     65 CA         34.4327    1.7799   -8.1491 C.3       11 UNK         0.1007 
     66 C          34.2837    3.3180   -7.9625 C.2       11 UNK         0.5703 
     67 N          33.1183    3.9105   -8.1979 N.am      11 UNK        -0.7361 
     68 O          35.2536    3.9886   -7.6166 O.2       11 UNK        -0.4986 
     69 C69        34.6932    1.0461   -6.8052 C.3       12 UNK        -0.0947 
     70 S70        33.1962    0.8776   -5.7799 S.3       12 UNK        -0.2240 
     71 C71        33.8230   -0.0466   -4.3509 C.3       12 UNK         0.0194 
     72 H72        24.9309   -8.3558   -0.8166 H         1 UNK         0.0906 
     73 H73        26.4932   -8.5613   -1.6110 H         1 UNK         0.0906 
     74 H74        26.4005   -8.5081    0.1501 H         1 UNK         0.0906 
     75 H75        27.2814   -6.6493   -2.4660 H         1 UNK         0.3140 
     76 H76        27.4473   -4.2171   -0.9873 H         1 UNK         0.1085 
     77 H77        28.0489   -4.8508   -3.9230 H         1 UNK         0.0836 
     78 H78        28.3614   -3.2988   -3.1989 H         1 UNK         0.0836 
     79 H79        32.0269   -4.7068   -3.2567 H         1 UNK         0.0731 
     80 H80        30.7902   -4.2756   -4.4090 H         1 UNK         0.0731 
     81 H81        33.0102   -2.6361   -4.4525 H         1 UNK         0.1312 
     82 H82        32.0583    1.1178   -2.6165 H         1 UNK         0.1406 
     83 H83        29.7861   -2.3679   -1.6323 H         1 UNK         0.1631 
     84 H84        29.3866   -0.3597   -0.4270 H         1 UNK         0.0717 
     85 H85        30.5157    0.9642   -0.5403 H         1 UNK         0.0717 
     86 H86        28.3380   -0.9410   -3.0517 H         1 UNK         0.0934 
     87 H87        26.8714   -0.2954   -2.4138 H         1 UNK         0.0934 
     88 H88        26.9461   -0.5599   -4.8926 H         1 UNK         0.0739 
     89 H89        25.7515    1.4363   -3.5591 H         1 UNK         0.3093 
     90 H90        24.1633    2.8232   -4.3352 H         1 UNK         0.0818 
     91 H91        22.9309    3.9351   -6.1746 H         1 UNK         0.0819 
     92 H92        24.6539    4.2170   -6.3673 H         1 UNK         0.0819 
     93 H93        23.8426    3.0359   -7.3849 H         1 UNK         0.0819 
     94 H94        22.7451    1.1672   -6.3094 H         1 UNK         0.3041 
     95 H95        21.0072   -0.4818   -4.4329 H         1 UNK         0.0784 
     96 H96        21.4014   -0.2030   -6.8362 H         1 UNK         0.0793 
     97 H97        22.8434   -1.2152   -6.7794 H         1 UNK         0.0793 
     98 H98        21.2524   -1.9144   -6.5081 H         1 UNK         0.0793 
     99 H99        21.6673   -2.3038   -3.4043 H         1 UNK         0.3024 
    100 H100       23.0971   -3.7196   -2.3290 H         1 UNK         0.1171 
    101 H101       22.7127   -5.9855   -3.2972 H         1 UNK         0.0786 
    102 H102       21.7118   -4.8071   -4.1247 H         1 UNK         0.0786 
    103 H103       23.1720   -5.4039   -4.8984 H         1 UNK         0.0786 
    104 H104       25.1169   -5.3898   -3.3312 H         1 UNK         0.2977 
    105 H105       28.2980    2.7004   -4.7073 H         1 UNK         0.3127 
    106 H106       30.7867    2.1821   -5.9404 H         1 UNK         0.0770 
    107 H107       29.1546    4.7714   -5.8441 H         1 UNK         0.0814 
    108 H108       30.8584    4.6542   -6.2632 H         1 UNK         0.0814 
    109 H109       30.3324    4.2388   -4.6416 H         1 UNK         0.0814 
    110 H110       27.5963    2.6959   -7.3562 H         1 UNK         0.2983 
    111 H111       28.6525    2.9967  -10.1014 H         1 UNK         0.0947 
    112 H112       26.2551    3.2039  -10.7055 H         1 UNK         0.0806 
    113 H113       26.6625    4.3391   -9.4287 H         1 UNK         0.0806 
    114 H114       25.7729    2.8654   -9.0502 H         1 UNK         0.0806 
    115 H115       26.8750    0.6672   -8.0495 H         1 UNK         0.3000 
    116 H116       26.4481   -1.3354   -9.9868 H         1 UNK         0.0850 
    117 H117       26.7337   -1.6417   -6.9498 H         1 UNK         0.0810 
    118 H118       25.9703   -2.7922   -8.0339 H         1 UNK         0.0810 
    119 H119       25.2523   -1.2070   -7.7949 H         1 UNK         0.0810 
    120 H120       29.1591   -1.0089   -7.6186 H         1 UNK         0.3040 
    121 H121       30.6022   -3.2905   -8.7787 H         1 UNK         0.0766 
    122 H122       30.6480   -2.8321   -6.3332 H         1 UNK         0.0812 
    123 H123       31.3896   -1.2650   -6.6228 H         1 UNK         0.0812 
    124 H124       32.2643   -2.7373   -7.0190 H         1 UNK         0.0812 
    125 H125       30.2737   -0.0159   -9.5891 H         1 UNK         0.3205 
    126 H126       31.2125    1.4245  -10.9443 H         1 UNK         0.0754 
    127 H127       32.4674    0.6495  -12.9121 H         1 UNK         0.0769 
    128 H128       31.1582   -0.4708  -12.5809 H         1 UNK         0.0769 
    129 H129       32.8147   -0.8925  -12.1456 H         1 UNK         0.0769 
    130 H130       32.5823    0.7830   -8.3394 H         1 UNK         0.2981 
    131 H131       35.3388    1.6547   -8.7447 H         1 UNK         0.0541 
    132 H132       32.2966    3.3623   -8.4342 H         1 UNK         0.3459 
    133 H133       33.0440    4.9085   -8.0882 H         1 UNK         0.3459 
    134 H134       35.4716    1.5461   -6.2260 H         1 UNK         0.0612 
    135 H135       35.0704    0.0434   -7.0119 H         1 UNK         0.0612 
    136 H136       34.3744    0.6289   -3.6955 H         1 UNK         0.0624 
    137 H137       34.5324   -0.8039   -4.6883 H         1 UNK         0.0624 
@<TRIPOS>BOND
     1    1    2 1    
     2    1   72 1    
     3    1   73 1    
     4    1   74 1    
     5    2    3 2    
     6    2    4 am   BACKBONE|DICT|INTERRES
     7    4    5 1    
     8    4   75 1    
     9    5    6 1    
    10    5   35 1    
    11    5   76 1    
    12    6    7 1    
    13    6   77 1    
    14    6   78 1    
    15    7    8 1    
    16    8    9 1    
    17    8   79 1    
    18    8   80 1    
    19    9   10 ar   
    20    9   14 ar   
    21   10   11 ar   
    22   10   81 1    
    23   11   12 ar   
    24   11   71 1    
    25   12   13 ar   
    26   12   82 1    
    27   13   14 ar   
    28   13   15 1    
    29   14   83 1    
    30   15   16 1    
    31   15   84 1    
    32   15   85 1    
    33   16   17 1    
    34   17   18 1    
    35   17   86 1    
    36   17   87 1    
    37   18   19 1    
    38   18   37 1    
    39   18   88 1    
    40   19   20 am   BACKBONE|DICT|INTERRES
    41   19   89 1    
    42   20   21 2    
    43   20   22 1    
    44   22   23 1    
    45   22   24 1    
    46   22   90 1    
    47   23   91 1    
    48   23   92 1    
    49   23   93 1    
    50   24   25 am   BACKBONE|DICT|INTERRES
    51   24   94 1    
    52   25   26 2    
    53   25   27 1    
    54   27   28 1    
    55   27   29 1    
    56   27   95 1    
    57   28   96 1    
    58   28   97 1    
    59   28   98 1    
    60   29   30 am   BACKBONE|DICT|INTERRES
    61   29   99 1    
    62   30   31 2    
    63   30   32 1    
    64   32   33 1    
    65   32   34 1    
    66   32  100 1    
    67   33  101 1    
    68   33  102 1    
    69   33  103 1    
    70   34   35 am   BACKBONE|DICT|INTERRES
    71   34  104 1    
    72   35   36 2    
    73   37   38 2    
    74   37   39 am   BACKBONE|DICT|INTERRES
    75   39   40 1    
    76   39  105 1    
    77   40   41 1    
    78   40   42 1    
    79   40  106 1    
    80   41  107 1    
    81   41  108 1    
    82   41  109 1    
    83   42   43 2    
    84   42   44 am   BACKBONE|DICT|INTERRES
    85   44   45 1    
    86   44  110 1    
    87   45   46 1    
    88   45   47 1    
    89   45  111 1    
    90   46  112 1    
    91   46  113 1    
    92   46  114 1    
    93   47   48 2    
    94   47   49 am   BACKBONE|DICT|INTERRES
    95   49   50 1    
    96   49  115 1    
    97   50   51 1    
    98   50   52 1    
    99   50  116 1    
   100   51  117 1    
   101   51  118 1    
   102   51  119 1    
   103   52   53 2    
   104   52   54 am   BACKBONE|DICT|INTERRES
   105   54   55 1    
   106   54  120 1    
   107   55   56 1    
   108   55   57 1    
   109   55  121 1    
   110   56  122 1    
   111   56  123 1    
   112   56  124 1    
   113   57   58 2    
   114   57   59 am   BACKBONE|DICT|INTERRES
   115   59   60 1    
   116   59  125 1    
   117   60   61 1    
   118   60   62 1    
   119   60  126 1    
   120   61  127 1    
   121   61  128 1    
   122   61  129 1    
   123   62   63 2    
   124   62   64 am   BACKBONE|DICT|INTERRES
   125   64   65 1    
   126   64  130 1    
   127   65   66 1    
   128   65   69 1    
   129   65  131 1    
   130   66   67 am   BACKBONE|DICT|INTERRES
   131   66   68 2    
   132   67  132 1    
   133   67  133 1    
   134   69   70 1    
   135   69  134 1    
   136   69  135 1    
   137   70   71 1    
   138   71  136 1    
   139   71  137 1    
@<TRIPOS>SUBSTRUCTURE
     1 UNK         1 GROUP             0       ****    0 ROOT    
