@<TRIPOS>MOLECULE
3R137
137   139    1
SMALL
USER_CHARGES


@<TRIPOS>ATOM
      1 CA         24.6332   -5.1809    0.7493 C.3       0 UNK        -0.2020 
      2 C          25.3553   -4.4668   -0.3829 C.2       0 UNK         0.4855 
      3 O          24.7761   -4.2845   -1.4544 O.2       0 UNK        -0.5197 
      4 N          26.6080   -4.0461   -0.1451 N.am      1 UNK        -0.4892 
      5 CA         27.5056   -3.3793   -1.1039 C.3       1 UNK         0.0835 
      6 C6         28.0315   -4.3466   -2.2026 C.3       12 UNK        -0.0855 
      7 S7         29.3929   -5.4159   -1.6317 S.3       12 UNK        -0.2931 
      8 C8         30.8028   -4.2606   -1.4267 C.3       12 UNK         0.0378 
      9 C9         30.8679   -3.1300   -2.4537 C.ar      12 UNK        -0.0802 
     10 C10        30.9780   -3.4095   -3.8201 C.ar      12 UNK        -0.0944 
     11 C11        31.0361   -2.3698   -4.7531 C.ar      12 UNK        -0.0787 
     12 C12        31.0176   -1.0444   -4.3124 C.ar      12 UNK        -0.0862 
     13 C13        30.9068   -0.7442   -2.9503 C.ar      12 UNK        -0.0733 
     14 C14        30.8318   -1.7959   -2.0298 C.ar      12 UNK        -0.0832 
     15 C15        30.9079    0.6982   -2.4380 C.3       12 UNK         0.0240 
     16 S16        30.1436    1.9309   -3.5533 S.3       12 UNK        -0.2522 
     17 C17        28.4230    1.3395   -3.6532 C.3       12 UNK        -0.0967 
     18 CA         28.0065    1.0069   -5.1133 C.3       5 UNK         0.0660 
     19 N          27.3247   -0.2867   -5.2138 N.am      5 UNK        -0.4015 
     20 C          26.9564   -0.8854   -6.3557 C.2       4 UNK         0.4946 
     21 O          27.1185   -0.3967   -7.4716 O.2       4 UNK        -0.5353 
     22 CA         26.2490   -2.2403   -6.2328 C.3       4 UNK         0.0277 
     23 CB         27.2709   -3.3646   -6.0042 C.3       4 UNK        -0.1981 
     24 N          25.2624   -2.2180   -5.1521 N.am      4 UNK        -0.4209 
     25 C          24.0429   -1.6719   -5.2680 C.2       3 UNK         0.4942 
     26 O          23.5941   -1.2148   -6.3195 O.2       3 UNK        -0.5208 
     27 CA         23.1841   -1.5985   -3.9932 C.3       3 UNK         0.0250 
     28 CB         22.3896   -2.8997   -3.7994 C.3       3 UNK        -0.1990 
     29 N          23.9661   -1.3185   -2.7866 N.am      3 UNK        -0.4232 
     30 C          24.6187   -0.1689   -2.5575 C.2       2 UNK         0.4993 
     31 O          24.6177    0.7867   -3.3330 O.2       2 UNK        -0.5286 
     32 CA         25.4672   -0.0878   -1.2754 C.3       2 UNK         0.0209 
     33 CB         24.6172    0.4218   -0.1010 C.3       2 UNK        -0.1931 
     34 N          26.1174   -1.3490   -0.8969 N.am      2 UNK        -0.4546 
     35 C          26.9098   -2.0806   -1.6951 C.2       1 UNK         0.5154 
     36 O          27.1523   -1.7657   -2.8605 O.2       1 UNK        -0.5181 
     37 C          27.2067    2.1595   -5.7562 C.2       5 UNK         0.5014 
     38 O          27.7954    3.0092   -6.4253 O.2       5 UNK        -0.5248 
     39 N          25.8776    2.1492   -5.5741 N.am      6 UNK        -0.4434 
     40 CA         24.9464    3.0845   -6.2087 C.3       6 UNK         0.0363 
     41 CB         23.5610    2.9372   -5.5593 C.3       6 UNK        -0.1936 
     42 C          24.8381    2.9140   -7.7359 C.2       6 UNK         0.5081 
     43 O          24.5243    3.8881   -8.4211 O.2       6 UNK        -0.5248 
     44 N          25.0803    1.6976   -8.2443 N.am      7 UNK        -0.4718 
     45 CA         25.0615    1.3854   -9.6734 C.3       7 UNK         0.0273 
     46 CB         24.6717   -0.0880   -9.8820 C.3       7 UNK        -0.1935 
     47 C          26.4116    1.7046  -10.3325 C.2       7 UNK         0.5018 
     48 O          26.4337    2.3913  -11.3551 O.2       7 UNK        -0.5186 
     49 N          27.5071    1.2163   -9.7376 N.am      8 UNK        -0.4240 
     50 CA         28.8752    1.4148  -10.2055 C.3       8 UNK         0.0235 
     51 CB         29.1724    0.5047  -11.4151 C.3       8 UNK        -0.2000 
     52 C          29.8388    1.1410   -9.0467 C.2       8 UNK         0.4941 
     53 O          30.1222   -0.0208   -8.7532 O.2       8 UNK        -0.5273 
     54 N          30.3359    2.2126   -8.4146 N.am      9 UNK        -0.4262 
     55 CA         31.3080    2.1506   -7.3176 C.3       9 UNK         0.0264 
     56 CB         31.4467    3.5391   -6.6742 C.3       9 UNK        -0.1955 
     57 C          32.6845    1.6110   -7.7415 C.2       9 UNK         0.5031 
     58 O          33.3551    0.9624   -6.9381 O.2       9 UNK        -0.5390 
     59 N          33.0756    1.8603   -8.9984 N.am      10 UNK        -0.4204 
     60 CA         34.3275    1.4037   -9.6072 C.3       10 UNK         0.0237 
     61 CB         34.7198    2.3854  -10.7283 C.3       10 UNK        -0.1985 
     62 C          34.2366   -0.0561  -10.0989 C.2       10 UNK         0.4970 
     63 O          34.5686   -0.3380  -11.2518 O.2       10 UNK        -0.4914 
     64 N          33.7796   -0.9580   -9.2229 N.am      11 UNK        -0.4285 
     65 CA         33.6572   -2.4012   -9.4814 C.3       11 UNK         0.1007 
     66 C          34.9979   -3.1934   -9.4412 C.2       11 UNK         0.5703 
     67 N          36.1073   -2.6082   -9.0040 N.am      11 UNK        -0.7361 
     68 O          35.0347   -4.3578   -9.8326 O.2       11 UNK        -0.4986 
     69 C69        32.5593   -3.0512   -8.5985 C.3       12 UNK        -0.0947 
     70 S70        32.8229   -2.8310   -6.8050 S.3       12 UNK        -0.2240 
     71 C71        31.1040   -2.6696   -6.2407 C.3       12 UNK         0.0194 
     72 H72        23.7268   -4.6384    1.0170 H         1 UNK         0.0906 
     73 H73        24.3490   -6.1851    0.4360 H         1 UNK         0.0906 
     74 H74        25.2538   -5.2669    1.6410 H         1 UNK         0.0906 
     75 H75        27.0153   -4.2261    0.7629 H         1 UNK         0.3140 
     76 H76        28.3606   -3.0298   -0.5246 H         1 UNK         0.1085 
     77 H77        27.2247   -4.9781   -2.5773 H         1 UNK         0.0836 
     78 H78        28.4002   -3.8236   -3.0808 H         1 UNK         0.0836 
     79 H79        31.7298   -4.8333   -1.4776 H         1 UNK         0.0731 
     80 H80        30.7615   -3.8528   -0.4156 H         1 UNK         0.0731 
     81 H81        31.0019   -4.4371   -4.1565 H         1 UNK         0.1312 
     82 H82        31.0930   -0.2485   -5.0382 H         1 UNK         0.1406 
     83 H83        30.7588   -1.5723   -0.9740 H         1 UNK         0.1631 
     84 H84        31.9418    0.9950   -2.2577 H         1 UNK         0.0717 
     85 H85        30.3996    0.7549   -1.4741 H         1 UNK         0.0717 
     86 H86        28.3389    0.4615   -3.0150 H         1 UNK         0.0934 
     87 H87        27.7671    2.0817   -3.1931 H         1 UNK         0.0934 
     88 H88        28.9038    0.8846   -5.7205 H         1 UNK         0.0739 
     89 H89        27.1867   -0.7933   -4.3400 H         1 UNK         0.3093 
     90 H90        25.7331   -2.4421   -7.1744 H         1 UNK         0.0818 
     91 H91        27.9185   -3.1555   -5.1541 H         1 UNK         0.0819 
     92 H92        26.7828   -4.3241   -5.8332 H         1 UNK         0.0819 
     93 H93        27.9166   -3.4779   -6.8759 H         1 UNK         0.0819 
     94 H94        25.5795   -2.5117   -4.2370 H         1 UNK         0.3041 
     95 H95        22.4722   -0.7806   -4.1246 H         1 UNK         0.0784 
     96 H96        21.7784   -3.1181   -4.6763 H         1 UNK         0.0793 
     97 H97        23.0476   -3.7548   -3.6384 H         1 UNK         0.0793 
     98 H98        21.7162   -2.8301   -2.9450 H         1 UNK         0.0793 
     99 H99        24.0651   -2.0736   -2.1197 H         1 UNK         0.3024 
    100 H100       26.2586    0.6404   -1.4638 H         1 UNK         0.1171 
    101 H101       25.2273    0.5954    0.7857 H         1 UNK         0.0786 
    102 H102       24.1354    1.3686   -0.3498 H         1 UNK         0.0786 
    103 H103       23.8299   -0.2848    0.1648 H         1 UNK         0.0786 
    104 H104       25.9500   -1.6858    0.0404 H         1 UNK         0.2977 
    105 H105       25.4700    1.4644   -4.9413 H         1 UNK         0.3127 
    106 H106       25.3073    4.0974   -6.0178 H         1 UNK         0.0770 
    107 H107       23.1655    1.9277   -5.6822 H         1 UNK         0.0814 
    108 H108       22.8432    3.6276   -6.0044 H         1 UNK         0.0814 
    109 H109       23.5987    3.1535   -4.4915 H         1 UNK         0.0814 
    110 H110       25.3906    0.9603   -7.6239 H         1 UNK         0.2983 
    111 H111       24.3000    1.9983  -10.1614 H         1 UNK         0.0947 
    112 H112       24.6104   -0.3261  -10.9447 H         1 UNK         0.0806 
    113 H113       23.6972   -0.3045   -9.4437 H         1 UNK         0.0806 
    114 H114       25.3940   -0.7726   -9.4376 H         1 UNK         0.0806 
    115 H115       27.4055    0.6530   -8.8906 H         1 UNK         0.3000 
    116 H116       28.9950    2.4543  -10.5190 H         1 UNK         0.0850 
    117 H117       30.2138    0.5963  -11.7261 H         1 UNK         0.0810 
    118 H118       28.5545    0.7660  -12.2742 H         1 UNK         0.0810 
    119 H119       28.9924   -0.5454  -11.1814 H         1 UNK         0.0810 
    120 H120       30.0127    3.1318   -8.6815 H         1 UNK         0.3040 
    121 H121       30.9173    1.4668   -6.5652 H         1 UNK         0.0766 
    122 H122       30.4915    3.8895   -6.2821 H         1 UNK         0.0812 
    123 H123       31.8150    4.2817   -7.3829 H         1 UNK         0.0812 
    124 H124       32.1449    3.5107   -5.8363 H         1 UNK         0.0812 
    125 H125       32.4428    2.3699   -9.5973 H         1 UNK         0.3205 
    126 H126       35.1166    1.4347   -8.8527 H         1 UNK         0.0754 
    127 H127       35.6803    2.1142  -11.1688 H         1 UNK         0.0769 
    128 H128       34.8183    3.4026  -10.3484 H         1 UNK         0.0769 
    129 H129       33.9829    2.3969  -11.5325 H         1 UNK         0.0769 
    130 H130       33.5386   -0.6480   -8.2880 H         1 UNK         0.2981 
    131 H131       33.3103   -2.5045  -10.5114 H         1 UNK         0.0541 
    132 H132       36.0868   -1.6575   -8.6731 H         1 UNK         0.3459 
    133 H133       36.9687   -3.1309   -8.9903 H         1 UNK         0.3459 
    134 H134       31.5951   -2.6165   -8.8671 H         1 UNK         0.0612 
    135 H135       32.4679   -4.1182   -8.8092 H         1 UNK         0.0612 
    136 H136       30.6083   -1.8744   -6.8001 H         1 UNK         0.0624 
    137 H137       30.5626   -3.5899   -6.4645 H         1 UNK         0.0624 
@<TRIPOS>BOND
     1    1    2 1    
     2    1   72 1    
     3    1   73 1    
     4    1   74 1    
     5    2    3 2    
     6    2    4 am   BACKBONE|DICT|INTERRES
     7    4    5 1    
     8    4   75 1    
     9    5    6 1    
    10    5   35 1    
    11    5   76 1    
    12    6    7 1    
    13    6   77 1    
    14    6   78 1    
    15    7    8 1    
    16    8    9 1    
    17    8   79 1    
    18    8   80 1    
    19    9   10 ar   
    20    9   14 ar   
    21   10   11 ar   
    22   10   81 1    
    23   11   12 ar   
    24   11   71 1    
    25   12   13 ar   
    26   12   82 1    
    27   13   14 ar   
    28   13   15 1    
    29   14   83 1    
    30   15   16 1    
    31   15   84 1    
    32   15   85 1    
    33   16   17 1    
    34   17   18 1    
    35   17   86 1    
    36   17   87 1    
    37   18   19 1    
    38   18   37 1    
    39   18   88 1    
    40   19   20 am   BACKBONE|DICT|INTERRES
    41   19   89 1    
    42   20   21 2    
    43   20   22 1    
    44   22   23 1    
    45   22   24 1    
    46   22   90 1    
    47   23   91 1    
    48   23   92 1    
    49   23   93 1    
    50   24   25 am   BACKBONE|DICT|INTERRES
    51   24   94 1    
    52   25   26 2    
    53   25   27 1    
    54   27   28 1    
    55   27   29 1    
    56   27   95 1    
    57   28   96 1    
    58   28   97 1    
    59   28   98 1    
    60   29   30 am   BACKBONE|DICT|INTERRES
    61   29   99 1    
    62   30   31 2    
    63   30   32 1    
    64   32   33 1    
    65   32   34 1    
    66   32  100 1    
    67   33  101 1    
    68   33  102 1    
    69   33  103 1    
    70   34   35 am   BACKBONE|DICT|INTERRES
    71   34  104 1    
    72   35   36 2    
    73   37   38 2    
    74   37   39 am   BACKBONE|DICT|INTERRES
    75   39   40 1    
    76   39  105 1    
    77   40   41 1    
    78   40   42 1    
    79   40  106 1    
    80   41  107 1    
    81   41  108 1    
    82   41  109 1    
    83   42   43 2    
    84   42   44 am   BACKBONE|DICT|INTERRES
    85   44   45 1    
    86   44  110 1    
    87   45   46 1    
    88   45   47 1    
    89   45  111 1    
    90   46  112 1    
    91   46  113 1    
    92   46  114 1    
    93   47   48 2    
    94   47   49 am   BACKBONE|DICT|INTERRES
    95   49   50 1    
    96   49  115 1    
    97   50   51 1    
    98   50   52 1    
    99   50  116 1    
   100   51  117 1    
   101   51  118 1    
   102   51  119 1    
   103   52   53 2    
   104   52   54 am   BACKBONE|DICT|INTERRES
   105   54   55 1    
   106   54  120 1    
   107   55   56 1    
   108   55   57 1    
   109   55  121 1    
   110   56  122 1    
   111   56  123 1    
   112   56  124 1    
   113   57   58 2    
   114   57   59 am   BACKBONE|DICT|INTERRES
   115   59   60 1    
   116   59  125 1    
   117   60   61 1    
   118   60   62 1    
   119   60  126 1    
   120   61  127 1    
   121   61  128 1    
   122   61  129 1    
   123   62   63 2    
   124   62   64 am   BACKBONE|DICT|INTERRES
   125   64   65 1    
   126   64  130 1    
   127   65   66 1    
   128   65   69 1    
   129   65  131 1    
   130   66   67 am   BACKBONE|DICT|INTERRES
   131   66   68 2    
   132   67  132 1    
   133   67  133 1    
   134   69   70 1    
   135   69  134 1    
   136   69  135 1    
   137   70   71 1    
   138   71  136 1    
   139   71  137 1    
@<TRIPOS>SUBSTRUCTURE
     1 UNK         1 GROUP             0       ****    0 ROOT    
