@<TRIPOS>MOLECULE
3R137
137   139    1
SMALL
USER_CHARGES


@<TRIPOS>ATOM
      1 CA         25.7053   -5.4838   -4.8100 C.3       0 UNK        -0.2020 
      2 C          25.8167   -4.6939   -3.5141 C.2       0 UNK         0.4855 
      3 O          25.0667   -3.7348   -3.3206 O.2       0 UNK        -0.5197 
      4 N          26.7455   -5.1104   -2.6380 N.am      1 UNK        -0.4892 
      5 CA         26.9631   -4.6307   -1.2629 C.3       1 UNK         0.0835 
      6 C6         28.0970   -5.4467   -0.5526 C.3       12 UNK        -0.0855 
      7 S7         29.3488   -4.5628    0.4580 S.3       12 UNK        -0.2931 
      8 C8         30.8900   -4.8405   -0.4775 C.3       12 UNK         0.0378 
      9 C9         30.9939   -3.9369   -1.6986 C.ar      12 UNK        -0.0802 
     10 C10        31.5253   -2.6483   -1.5739 C.ar      12 UNK        -0.0944 
     11 C11        31.6260   -1.8087   -2.6882 C.ar      12 UNK        -0.0787 
     12 C12        31.1928   -2.2712   -3.9314 C.ar      12 UNK        -0.0862 
     13 C13        30.6734   -3.5595   -4.0746 C.ar      12 UNK        -0.0733 
     14 C14        30.5777   -4.3907   -2.9546 C.ar      12 UNK        -0.0832 
     15 C15        30.2240   -4.0514   -5.4414 C.3       12 UNK         0.0240 
     16 S16        28.5163   -3.5440   -5.8025 S.3       12 UNK        -0.2522 
     17 C17        28.7352   -1.7806   -6.2020 C.3       12 UNK        -0.0967 
     18 CA         27.5650   -1.1965   -7.0225 C.3       5 UNK         0.0660 
     19 N          26.2697   -1.3819   -6.3586 N.am      5 UNK        -0.4015 
     20 C          25.0763   -1.2018   -6.9405 C.2       4 UNK         0.4946 
     21 O          24.9374   -0.8500   -8.1115 O.2       4 UNK        -0.5353 
     22 CA         23.8257   -1.4384   -6.0773 C.3       4 UNK         0.0277 
     23 CB         23.2647   -2.8516   -6.2924 C.3       4 UNK        -0.1981 
     24 N          24.0810   -1.2150   -4.6505 N.am      4 UNK        -0.4209 
     25 C          24.0255   -0.0006   -4.0846 C.2       3 UNK         0.4942 
     26 O          23.7115    1.0249   -4.6906 O.2       3 UNK        -0.5208 
     27 CA         24.4075    0.0983   -2.5994 C.3       3 UNK         0.0250 
     28 CB         23.2926   -0.4740   -1.7090 C.3       3 UNK        -0.1990 
     29 N          25.6785   -0.5459   -2.2616 N.am      3 UNK        -0.4232 
     30 C          26.8674   -0.3155   -2.8325 C.2       2 UNK         0.4993 
     31 O          27.0317    0.4269   -3.7979 O.2       2 UNK        -0.5286 
     32 CA         28.0849   -1.0514   -2.2541 C.3       2 UNK         0.0209 
     33 CB         28.6068   -0.3572   -0.9804 C.3       2 UNK        -0.1931 
     34 N          27.8643   -2.4893   -2.0548 N.am      2 UNK        -0.4546 
     35 C          27.0740   -3.0945   -1.1568 C.2       1 UNK         0.5154 
     36 O          26.3984   -2.4954   -0.3170 O.2       1 UNK        -0.5181 
     37 C          27.8362    0.2833   -7.3587 C.2       5 UNK         0.5014 
     38 O          28.3846    0.5734   -8.4239 O.2       5 UNK        -0.5248 
     39 N          27.4206    1.1947   -6.4664 N.am      6 UNK        -0.4434 
     40 CA         27.5322    2.6476   -6.6123 C.3       6 UNK         0.0363 
     41 CB         27.0317    3.3288   -5.3293 C.3       6 UNK        -0.1936 
     42 C          26.7970    3.2144   -7.8381 C.2       6 UNK         0.5081 
     43 O          27.2445    4.2215   -8.3843 O.2       6 UNK        -0.5248 
     44 N          25.7272    2.5435   -8.2907 N.am      7 UNK        -0.4718 
     45 CA         24.9983    2.8847   -9.5182 C.3       7 UNK         0.0273 
     46 CB         23.6831    2.0919   -9.5726 C.3       7 UNK        -0.1935 
     47 C          25.8255    2.6551  -10.7981 C.2       7 UNK         0.5018 
     48 O          25.5912    3.3380  -11.7954 O.2       7 UNK        -0.5186 
     49 N          26.7898    1.7264  -10.7377 N.am      8 UNK        -0.4240 
     50 CA         27.7840    1.4698  -11.7823 C.3       8 UNK         0.0235 
     51 CB         27.9811   -0.0522  -11.9011 C.3       8 UNK        -0.2000 
     52 C          29.1281    2.1650  -11.4861 C.2       8 UNK         0.4941 
     53 O          30.0535    2.0316  -12.2877 O.2       8 UNK        -0.5273 
     54 N          29.2255    2.8603  -10.3402 N.am      9 UNK        -0.4262 
     55 CA         30.4242    3.4682   -9.7490 C.3       9 UNK         0.0264 
     56 CB         30.9097    4.6608  -10.6001 C.3       9 UNK        -0.1955 
     57 C          31.5414    2.4450   -9.4512 C.2       9 UNK         0.5031 
     58 O          32.7229    2.7862   -9.5439 O.2       9 UNK        -0.5390 
     59 N          31.1557    1.2083   -9.1107 N.am      10 UNK        -0.4204 
     60 CA         32.0681    0.0958   -8.8565 C.3       10 UNK         0.0237 
     61 CB         31.4359   -1.1922   -9.4111 C.3       10 UNK        -0.1985 
     62 C          32.3505   -0.0486   -7.3553 C.2       10 UNK         0.4970 
     63 O          31.4454    0.1560   -6.5454 O.2       10 UNK        -0.4914 
     64 N          33.5837   -0.4511   -7.0302 N.am      11 UNK        -0.4285 
     65 CA         34.0729   -0.8440   -5.6989 C.3       11 UNK         0.1007 
     66 C          35.4607   -1.5391   -5.8177 C.2       11 UNK         0.5703 
     67 N          35.6559   -2.4058   -6.8060 N.am      11 UNK        -0.7361 
     68 O          36.3783   -1.2892   -5.0399 O.2       11 UNK        -0.4986 
     69 C69        34.0011    0.2973   -4.6379 C.3       12 UNK        -0.0947 
     70 S70        33.9556   -0.3155   -2.9141 S.3       12 UNK        -0.2240 
     71 C71        32.1722   -0.3946   -2.5454 C.3       12 UNK         0.0194 
     72 H72        26.4102   -6.3141   -4.8455 H         1 UNK         0.0906 
     73 H73        24.6997   -5.8903   -4.9143 H         1 UNK         0.0906 
     74 H74        25.9036   -4.8419   -5.6666 H         1 UNK         0.0906 
     75 H75        27.3155   -5.9000   -2.9043 H         1 UNK         0.3140 
     76 H76        26.0356   -4.8688   -0.7369 H         1 UNK         0.1085 
     77 H77        27.6307   -6.1801    0.1074 H         1 UNK         0.0836 
     78 H78        28.6356   -6.0553   -1.2794 H         1 UNK         0.0836 
     79 H79        30.9687   -5.8902   -0.7644 H         1 UNK         0.0731 
     80 H80        31.7355   -4.6497    0.1852 H         1 UNK         0.0731 
     81 H81        31.8512   -2.2951   -0.6051 H         1 UNK         0.1312 
     82 H82        31.2526   -1.6208   -4.7900 H         1 UNK         0.1406 
     83 H83        30.1806   -5.3907   -3.0621 H         1 UNK         0.1631 
     84 H84        30.2804   -5.1401   -5.4837 H         1 UNK         0.0717 
     85 H85        30.8959   -3.6839   -6.2188 H         1 UNK         0.0717 
     86 H86        28.8743   -1.2206   -5.2777 H         1 UNK         0.0934 
     87 H87        29.6628   -1.6797   -6.7645 H         1 UNK         0.0934 
     88 H88        27.5221   -1.7347   -7.9722 H         1 UNK         0.0739 
     89 H89        26.2980   -1.6612   -5.3900 H         1 UNK         0.3093 
     90 H90        23.0636   -0.7340   -6.4188 H         1 UNK         0.0818 
     91 H91        23.0495   -3.0297   -7.3469 H         1 UNK         0.0819 
     92 H92        23.9640   -3.6188   -5.9690 H         1 UNK         0.0819 
     93 H93        22.3343   -2.9954   -5.7430 H         1 UNK         0.0819 
     94 H94        24.3479   -2.0192   -4.0872 H         1 UNK         0.3041 
     95 H95        24.5180    1.1588   -2.3642 H         1 UNK         0.0784 
     96 H96        22.3317   -0.0099   -1.9364 H         1 UNK         0.0793 
     97 H97        23.1783   -1.5502   -1.8471 H         1 UNK         0.0793 
     98 H98        23.4970   -0.2931   -0.6535 H         1 UNK         0.0793 
     99 H99        25.6700   -1.2039   -1.4861 H         1 UNK         0.3024 
    100 H100       28.8753   -0.9748   -2.9989 H         1 UNK         0.1171 
    101 H101       29.4718   -0.8776   -0.5706 H         1 UNK         0.0786 
    102 H102       28.9160    0.6657   -1.1984 H         1 UNK         0.0786 
    103 H103       27.8493   -0.3047   -0.1982 H         1 UNK         0.0786 
    104 H104       28.3518   -3.0899   -2.7062 H         1 UNK         0.2977 
    105 H105       27.0621    0.8664   -5.5701 H         1 UNK         0.3127 
    106 H106       28.5922    2.8808   -6.7328 H         1 UNK         0.0770 
    107 H107       25.9939    3.0692   -5.1150 H         1 UNK         0.0814 
    108 H108       27.0893    4.4151   -5.4118 H         1 UNK         0.0814 
    109 H109       27.6330    3.0390   -4.4674 H         1 UNK         0.0814 
    110 H110       25.4336    1.7098   -7.7994 H         1 UNK         0.2983 
    111 H111       24.7530    3.9484   -9.4761 H         1 UNK         0.0947 
    112 H112       23.0871    2.3879  -10.4369 H         1 UNK         0.0806 
    113 H113       23.0747    2.2661   -8.6849 H         1 UNK         0.0806 
    114 H114       23.8605    1.0192   -9.6544 H         1 UNK         0.0806 
    115 H115       26.9263    1.2243   -9.8675 H         1 UNK         0.3000 
    116 H116       27.4266    1.8460  -12.7432 H         1 UNK         0.0850 
    117 H117       28.6790   -0.2964  -12.7031 H         1 UNK         0.0810 
    118 H118       27.0416   -0.5573  -12.1263 H         1 UNK         0.0810 
    119 H119       28.3802   -0.4810  -10.9809 H         1 UNK         0.0810 
    120 H120       28.3912    2.9365   -9.7729 H         1 UNK         0.3040 
    121 H121       30.1148    3.8619   -8.7798 H         1 UNK         0.0766 
    122 H122       31.2946    4.3374  -11.5677 H         1 UNK         0.0812 
    123 H123       31.7116    5.2013  -10.0959 H         1 UNK         0.0812 
    124 H124       30.1043    5.3729  -10.7795 H         1 UNK         0.0812 
    125 H125       30.1655    1.0213   -8.9665 H         1 UNK         0.3205 
    126 H126       33.0112    0.2636   -9.3812 H         1 UNK         0.0754 
    127 H127       32.0701   -2.0588   -9.2196 H         1 UNK         0.0769 
    128 H128       31.2951   -1.1259  -10.4902 H         1 UNK         0.0769 
    129 H129       30.4619   -1.3924   -8.9644 H         1 UNK         0.0769 
    130 H130       34.2651   -0.5694   -7.7674 H         1 UNK         0.2981 
    131 H131       33.4127   -1.6426   -5.3672 H         1 UNK         0.0541 
    132 H132       36.5574   -2.8492   -6.8904 H         1 UNK         0.3459 
    133 H133       34.9094   -2.6729   -7.4277 H         1 UNK         0.3459 
    134 H134       33.1271    0.9291   -4.7888 H         1 UNK         0.0612 
    135 H135       34.8545    0.9688   -4.7455 H         1 UNK         0.0612 
    136 H136       32.0158   -0.0422   -1.5248 H         1 UNK         0.0624 
    137 H137       31.6152    0.2908   -3.1859 H         1 UNK         0.0624 
@<TRIPOS>BOND
     1    1    2 1    
     2    1   72 1    
     3    1   73 1    
     4    1   74 1    
     5    2    3 2    
     6    2    4 am   BACKBONE|DICT|INTERRES
     7    4    5 1    
     8    4   75 1    
     9    5    6 1    
    10    5   35 1    
    11    5   76 1    
    12    6    7 1    
    13    6   77 1    
    14    6   78 1    
    15    7    8 1    
    16    8    9 1    
    17    8   79 1    
    18    8   80 1    
    19    9   10 ar   
    20    9   14 ar   
    21   10   11 ar   
    22   10   81 1    
    23   11   12 ar   
    24   11   71 1    
    25   12   13 ar   
    26   12   82 1    
    27   13   14 ar   
    28   13   15 1    
    29   14   83 1    
    30   15   16 1    
    31   15   84 1    
    32   15   85 1    
    33   16   17 1    
    34   17   18 1    
    35   17   86 1    
    36   17   87 1    
    37   18   19 1    
    38   18   37 1    
    39   18   88 1    
    40   19   20 am   BACKBONE|DICT|INTERRES
    41   19   89 1    
    42   20   21 2    
    43   20   22 1    
    44   22   23 1    
    45   22   24 1    
    46   22   90 1    
    47   23   91 1    
    48   23   92 1    
    49   23   93 1    
    50   24   25 am   BACKBONE|DICT|INTERRES
    51   24   94 1    
    52   25   26 2    
    53   25   27 1    
    54   27   28 1    
    55   27   29 1    
    56   27   95 1    
    57   28   96 1    
    58   28   97 1    
    59   28   98 1    
    60   29   30 am   BACKBONE|DICT|INTERRES
    61   29   99 1    
    62   30   31 2    
    63   30   32 1    
    64   32   33 1    
    65   32   34 1    
    66   32  100 1    
    67   33  101 1    
    68   33  102 1    
    69   33  103 1    
    70   34   35 am   BACKBONE|DICT|INTERRES
    71   34  104 1    
    72   35   36 2    
    73   37   38 2    
    74   37   39 am   BACKBONE|DICT|INTERRES
    75   39   40 1    
    76   39  105 1    
    77   40   41 1    
    78   40   42 1    
    79   40  106 1    
    80   41  107 1    
    81   41  108 1    
    82   41  109 1    
    83   42   43 2    
    84   42   44 am   BACKBONE|DICT|INTERRES
    85   44   45 1    
    86   44  110 1    
    87   45   46 1    
    88   45   47 1    
    89   45  111 1    
    90   46  112 1    
    91   46  113 1    
    92   46  114 1    
    93   47   48 2    
    94   47   49 am   BACKBONE|DICT|INTERRES
    95   49   50 1    
    96   49  115 1    
    97   50   51 1    
    98   50   52 1    
    99   50  116 1    
   100   51  117 1    
   101   51  118 1    
   102   51  119 1    
   103   52   53 2    
   104   52   54 am   BACKBONE|DICT|INTERRES
   105   54   55 1    
   106   54  120 1    
   107   55   56 1    
   108   55   57 1    
   109   55  121 1    
   110   56  122 1    
   111   56  123 1    
   112   56  124 1    
   113   57   58 2    
   114   57   59 am   BACKBONE|DICT|INTERRES
   115   59   60 1    
   116   59  125 1    
   117   60   61 1    
   118   60   62 1    
   119   60  126 1    
   120   61  127 1    
   121   61  128 1    
   122   61  129 1    
   123   62   63 2    
   124   62   64 am   BACKBONE|DICT|INTERRES
   125   64   65 1    
   126   64  130 1    
   127   65   66 1    
   128   65   69 1    
   129   65  131 1    
   130   66   67 am   BACKBONE|DICT|INTERRES
   131   66   68 2    
   132   67  132 1    
   133   67  133 1    
   134   69   70 1    
   135   69  134 1    
   136   69  135 1    
   137   70   71 1    
   138   71  136 1    
   139   71  137 1    
@<TRIPOS>SUBSTRUCTURE
     1 UNK         1 GROUP             0       ****    0 ROOT    
