@<TRIPOS>MOLECULE
3R137
137   139    1
SMALL
USER_CHARGES


@<TRIPOS>ATOM
      1 CA         27.3515   -4.4281   -7.4580 C.3       0 UNK        -0.2020 
      2 C          27.3678   -5.1082   -6.0976 C.2       0 UNK         0.4855 
      3 O          26.9538   -6.2619   -5.9801 O.2       0 UNK        -0.5197 
      4 N          27.8174   -4.3943   -5.0582 N.am      1 UNK        -0.4892 
      5 CA         27.9173   -4.8608   -3.6682 C.3       1 UNK         0.0835 
      6 C6         28.9627   -4.0341   -2.8738 C.3       12 UNK        -0.0855 
      7 S7         30.6600   -4.2129   -3.5245 S.3       12 UNK        -0.2931 
      8 C8         31.6686   -3.6300   -2.1200 C.3       12 UNK         0.0378 
      9 C9         31.7096   -2.1093   -2.0333 C.ar      12 UNK        -0.0802 
     10 C10        32.8212   -1.3989   -2.5023 C.ar      12 UNK        -0.0944 
     11 C11        32.8576   -0.0021   -2.4184 C.ar      12 UNK        -0.0787 
     12 C12        31.7665    0.6834   -1.8777 C.ar      12 UNK        -0.0862 
     13 C13        30.6413   -0.0139   -1.4328 C.ar      12 UNK        -0.0733 
     14 C14        30.6325   -1.4099   -1.4820 C.ar      12 UNK        -0.0832 
     15 C15        29.4041    0.7412   -0.9696 C.3       12 UNK         0.0240 
     16 S16        28.5901    1.6197   -2.3485 S.3       12 UNK        -0.2522 
     17 C17        28.5959    0.3515   -3.6703 C.3       12 UNK        -0.0967 
     18 CA         27.7488    0.7124   -4.9131 C.3       5 UNK         0.0660 
     19 N          26.3414    0.9265   -4.5678 N.am      5 UNK        -0.4015 
     20 C          25.3451    1.1719   -5.4262 C.2       4 UNK         0.4946 
     21 O          25.5057    1.4569   -6.6140 O.2       4 UNK        -0.5353 
     22 CA         23.9201    0.9938   -4.8753 C.3       4 UNK         0.0277 
     23 CB         22.9696    2.0807   -5.4069 C.3       4 UNK        -0.1981 
     24 N          23.3987   -0.3272   -5.2412 N.am      4 UNK        -0.4209 
     25 C          23.9089   -1.4966   -4.8276 C.2       3 UNK         0.4942 
     26 O          24.8116   -1.5896   -3.9921 O.2       3 UNK        -0.5208 
     27 CA         23.3434   -2.7622   -5.4973 C.3       3 UNK         0.0250 
     28 CB         23.7367   -2.8081   -6.9855 C.3       3 UNK        -0.1990 
     29 N          23.8506   -3.9729   -4.8502 N.am      3 UNK        -0.4232 
     30 C          23.3879   -4.4972   -3.7076 C.2       2 UNK         0.4993 
     31 O          22.3808   -4.0940   -3.1239 O.2       2 UNK        -0.5286 
     32 CA         24.1850   -5.6756   -3.1173 C.3       2 UNK         0.0209 
     33 CB         23.5608   -7.0153   -3.5409 C.3       2 UNK        -0.1931 
     34 N          25.5965   -5.6540   -3.5173 N.am      2 UNK        -0.4546 
     35 C          26.5279   -4.8499   -2.9871 C.2       1 UNK         0.5154 
     36 O          26.3126   -4.1108   -2.0247 O.2       1 UNK        -0.5181 
     37 C          28.3985    1.8308   -5.7507 C.2       5 UNK         0.5014 
     38 O          29.1536    1.5237   -6.6756 O.2       5 UNK        -0.5248 
     39 N          28.0773    3.0913   -5.4314 N.am      6 UNK        -0.4434 
     40 CA         28.5762    4.2759   -6.1310 C.3       6 UNK         0.0363 
     41 CB         28.3538    5.5162   -5.2509 C.3       6 UNK        -0.1936 
     42 C          27.9342    4.4760   -7.5141 C.2       6 UNK         0.5081 
     43 O          28.5977    4.9928   -8.4126 O.2       6 UNK        -0.5248 
     44 N          26.6675    4.0656   -7.6675 N.am      7 UNK        -0.4718 
     45 CA         25.9307    4.1272   -8.9325 C.3       7 UNK         0.0273 
     46 CB         24.4198    4.1503   -8.6514 C.3       7 UNK        -0.1935 
     47 C          26.2982    2.9512   -9.8484 C.2       7 UNK         0.5018 
     48 O          26.4559    3.1443  -11.0541 O.2       7 UNK        -0.5186 
     49 N          26.4529    1.7614   -9.2513 N.am      8 UNK        -0.4240 
     50 CA         26.8992    0.5365   -9.9161 C.3       8 UNK         0.0235 
     51 CB         26.6167   -0.6592   -8.9896 C.3       8 UNK        -0.2000 
     52 C          28.3867    0.5610  -10.3135 C.2       8 UNK         0.4941 
     53 O          28.7729   -0.2001  -11.2012 O.2       8 UNK        -0.5273 
     54 N          29.1851    1.4046   -9.6377 N.am      9 UNK        -0.4262 
     55 CA         30.6499    1.4960   -9.6960 C.3       9 UNK         0.0264 
     56 CB         31.1284    1.9810  -11.0809 C.3       9 UNK        -0.1955 
     57 C          31.2991    0.1729   -9.2485 C.2       9 UNK         0.5031 
     58 O          32.1366   -0.3878   -9.9579 O.2       9 UNK        -0.5390 
     59 N          30.8471   -0.3222   -8.0887 N.am      10 UNK        -0.4204 
     60 CA         31.1586   -1.6571   -7.5717 C.3       10 UNK         0.0237 
     61 CB         30.1107   -2.0324   -6.5141 C.3       10 UNK        -0.1985 
     62 C          32.5773   -1.8032   -6.9939 C.2       10 UNK         0.4970 
     63 O          33.0460   -2.9334   -6.8525 O.2       10 UNK        -0.4914 
     64 N          33.2186   -0.6804   -6.6479 N.am      11 UNK        -0.4285 
     65 CA         34.5621   -0.6189   -6.0560 C.3       11 UNK         0.1007 
     66 C          35.6690   -1.1945   -6.9820 C.2       11 UNK         0.5703 
     67 N          36.6518   -1.8863   -6.4207 N.am      11 UNK        -0.7361 
     68 O          35.6703   -0.9783   -8.1924 O.2       11 UNK        -0.4986 
     69 C69        34.9275    0.8215   -5.6137 C.3       12 UNK        -0.0947 
     70 S70        33.6893    1.5839   -4.5139 S.3       12 UNK        -0.2240 
     71 C71        34.0598    0.7813   -2.9223 C.3       12 UNK         0.0194 
     72 H72        26.4976   -4.7696   -8.0427 H         1 UNK         0.0906 
     73 H73        27.2795   -3.3455   -7.3660 H         1 UNK         0.0906 
     74 H74        28.2598   -4.6691   -8.0097 H         1 UNK         0.0906 
     75 H75        28.1340   -3.4485   -5.2087 H         1 UNK         0.3140 
     76 H76        28.2540   -5.9003   -3.6731 H         1 UNK         0.1085 
     77 H77        28.6908   -2.9781   -2.8879 H         1 UNK         0.0836 
     78 H78        28.9690   -4.3416   -1.8261 H         1 UNK         0.0836 
     79 H79        31.2901   -4.0502   -1.1870 H         1 UNK         0.0731 
     80 H80        32.6799   -4.0228   -2.2366 H         1 UNK         0.0731 
     81 H81        33.6569   -1.9338   -2.9319 H         1 UNK         0.1312 
     82 H82        31.7749    1.7646   -1.8432 H         1 UNK         0.1406 
     83 H83        29.7698   -1.9514   -1.1210 H         1 UNK         0.1631 
     84 H84        28.6838    0.0615   -0.5116 H         1 UNK         0.0717 
     85 H85        29.6814    1.4618   -0.1991 H         1 UNK         0.0717 
     86 H86        29.6291    0.1588   -3.9657 H         1 UNK         0.0934 
     87 H87        28.2304   -0.5843   -3.2450 H         1 UNK         0.0934 
     88 H88        27.7495   -0.1685   -5.5578 H         1 UNK         0.0739 
     89 H89        26.0921    0.6743   -3.6219 H         1 UNK         0.3093 
     90 H90        23.9478    1.0681   -3.7861 H         1 UNK         0.0818 
     91 H91        21.9870    2.0094   -4.9403 H         1 UNK         0.0819 
     92 H92        23.3572    3.0779   -5.1942 H         1 UNK         0.0819 
     93 H93        22.8323    2.0075   -6.4861 H         1 UNK         0.0819 
     94 H94        22.6762   -0.3398   -5.9464 H         1 UNK         0.3041 
     95 H95        22.2545   -2.7422   -5.4150 H         1 UNK         0.0784 
     96 H96        23.3048   -1.9725   -7.5374 H         1 UNK         0.0793 
     97 H97        24.8177   -2.7589   -7.1188 H         1 UNK         0.0793 
     98 H98        23.3815   -3.7219   -7.4624 H         1 UNK         0.0793 
     99 H99        24.7067   -4.3543   -5.2213 H         1 UNK         0.3024 
    100 H100       24.1267   -5.5966   -2.0290 H         1 UNK         0.1171 
    101 H101       22.5132   -7.0698   -3.2408 H         1 UNK         0.0786 
    102 H102       24.0742   -7.8566   -3.0748 H         1 UNK         0.0786 
    103 H103       23.5987   -7.1555   -4.6220 H         1 UNK         0.0786 
    104 H104       25.8636   -6.2034   -4.3298 H         1 UNK         0.2977 
    105 H105       27.4625    3.2421   -4.6445 H         1 UNK         0.3127 
    106 H106       29.6514    4.1542   -6.2816 H         1 UNK         0.0770 
    107 H107       27.2952    5.6876   -5.0520 H         1 UNK         0.0814 
    108 H108       28.7434    6.4124   -5.7359 H         1 UNK         0.0814 
    109 H109       28.8655    5.4198   -4.2931 H         1 UNK         0.0814 
    110 H110       26.2162    3.5806   -6.9029 H         1 UNK         0.2983 
    111 H111       26.1929    5.0521   -9.4518 H         1 UNK         0.0947 
    112 H112       23.8536    4.2383   -9.5796 H         1 UNK         0.0806 
    113 H113       24.1455    4.9975   -8.0227 H         1 UNK         0.0806 
    114 H114       24.0864    3.2401   -8.1531 H         1 UNK         0.0806 
    115 H115       26.2259    1.6867   -8.2601 H         1 UNK         0.3000 
    116 H116       26.3151    0.4125  -10.8305 H         1 UNK         0.0850 
    117 H117       26.9091   -1.5987   -9.4607 H         1 UNK         0.0810 
    118 H118       25.5558   -0.7317   -8.7495 H         1 UNK         0.0810 
    119 H119       27.1657   -0.5773   -8.0510 H         1 UNK         0.0810 
    120 H120       28.7569    1.9350   -8.8898 H         1 UNK         0.3040 
    121 H121       30.9414    2.2496   -8.9625 H         1 UNK         0.0766 
    122 H122       32.2061    2.1478  -11.0822 H         1 UNK         0.0812 
    123 H123       30.6531    2.9226  -11.3557 H         1 UNK         0.0812 
    124 H124       30.9129    1.2548  -11.8650 H         1 UNK         0.0812 
    125 H125       30.1848    0.2423   -7.5584 H         1 UNK         0.3205 
    126 H126       31.0705   -2.3632   -8.4003 H         1 UNK         0.0754 
    127 H127       30.2094   -3.0827   -6.2395 H         1 UNK         0.0769 
    128 H128       29.0985   -1.8835   -6.8871 H         1 UNK         0.0769 
    129 H129       30.2291   -1.4441   -5.6040 H         1 UNK         0.0769 
    130 H130       32.7603    0.2045   -6.7997 H         1 UNK         0.2981 
    131 H131       34.5281   -1.2428   -5.1612 H         1 UNK         0.0541 
    132 H132       36.6703   -2.0585   -5.4277 H         1 UNK         0.3459 
    133 H133       37.3876   -2.2516   -7.0049 H         1 UNK         0.3459 
    134 H134       35.0313    1.4685   -6.4868 H         1 UNK         0.0612 
    135 H135       35.8959    0.8380   -5.1101 H         1 UNK         0.0612 
    136 H136       34.9309    0.1307   -3.0110 H         1 UNK         0.0624 
    137 H137       34.3267    1.5488   -2.1945 H         1 UNK         0.0624 
@<TRIPOS>BOND
     1    1    2 1    
     2    1   72 1    
     3    1   73 1    
     4    1   74 1    
     5    2    3 2    
     6    2    4 am   BACKBONE|DICT|INTERRES
     7    4    5 1    
     8    4   75 1    
     9    5    6 1    
    10    5   35 1    
    11    5   76 1    
    12    6    7 1    
    13    6   77 1    
    14    6   78 1    
    15    7    8 1    
    16    8    9 1    
    17    8   79 1    
    18    8   80 1    
    19    9   10 ar   
    20    9   14 ar   
    21   10   11 ar   
    22   10   81 1    
    23   11   12 ar   
    24   11   71 1    
    25   12   13 ar   
    26   12   82 1    
    27   13   14 ar   
    28   13   15 1    
    29   14   83 1    
    30   15   16 1    
    31   15   84 1    
    32   15   85 1    
    33   16   17 1    
    34   17   18 1    
    35   17   86 1    
    36   17   87 1    
    37   18   19 1    
    38   18   37 1    
    39   18   88 1    
    40   19   20 am   BACKBONE|DICT|INTERRES
    41   19   89 1    
    42   20   21 2    
    43   20   22 1    
    44   22   23 1    
    45   22   24 1    
    46   22   90 1    
    47   23   91 1    
    48   23   92 1    
    49   23   93 1    
    50   24   25 am   BACKBONE|DICT|INTERRES
    51   24   94 1    
    52   25   26 2    
    53   25   27 1    
    54   27   28 1    
    55   27   29 1    
    56   27   95 1    
    57   28   96 1    
    58   28   97 1    
    59   28   98 1    
    60   29   30 am   BACKBONE|DICT|INTERRES
    61   29   99 1    
    62   30   31 2    
    63   30   32 1    
    64   32   33 1    
    65   32   34 1    
    66   32  100 1    
    67   33  101 1    
    68   33  102 1    
    69   33  103 1    
    70   34   35 am   BACKBONE|DICT|INTERRES
    71   34  104 1    
    72   35   36 2    
    73   37   38 2    
    74   37   39 am   BACKBONE|DICT|INTERRES
    75   39   40 1    
    76   39  105 1    
    77   40   41 1    
    78   40   42 1    
    79   40  106 1    
    80   41  107 1    
    81   41  108 1    
    82   41  109 1    
    83   42   43 2    
    84   42   44 am   BACKBONE|DICT|INTERRES
    85   44   45 1    
    86   44  110 1    
    87   45   46 1    
    88   45   47 1    
    89   45  111 1    
    90   46  112 1    
    91   46  113 1    
    92   46  114 1    
    93   47   48 2    
    94   47   49 am   BACKBONE|DICT|INTERRES
    95   49   50 1    
    96   49  115 1    
    97   50   51 1    
    98   50   52 1    
    99   50  116 1    
   100   51  117 1    
   101   51  118 1    
   102   51  119 1    
   103   52   53 2    
   104   52   54 am   BACKBONE|DICT|INTERRES
   105   54   55 1    
   106   54  120 1    
   107   55   56 1    
   108   55   57 1    
   109   55  121 1    
   110   56  122 1    
   111   56  123 1    
   112   56  124 1    
   113   57   58 2    
   114   57   59 am   BACKBONE|DICT|INTERRES
   115   59   60 1    
   116   59  125 1    
   117   60   61 1    
   118   60   62 1    
   119   60  126 1    
   120   61  127 1    
   121   61  128 1    
   122   61  129 1    
   123   62   63 2    
   124   62   64 am   BACKBONE|DICT|INTERRES
   125   64   65 1    
   126   64  130 1    
   127   65   66 1    
   128   65   69 1    
   129   65  131 1    
   130   66   67 am   BACKBONE|DICT|INTERRES
   131   66   68 2    
   132   67  132 1    
   133   67  133 1    
   134   69   70 1    
   135   69  134 1    
   136   69  135 1    
   137   70   71 1    
   138   71  136 1    
   139   71  137 1    
@<TRIPOS>SUBSTRUCTURE
     1 UNK         1 GROUP             0       ****    0 ROOT    
