@<TRIPOS>MOLECULE
3R137
137   139    1
SMALL
USER_CHARGES


@<TRIPOS>ATOM
      1 CA         25.8577   -4.4215    2.4306 C.3       0 UNK        -0.2020 
      2 C          26.7350   -3.4015    1.7205 C.2       0 UNK         0.4855 
      3 O          27.1013   -2.3890    2.3175 O.2       0 UNK        -0.5197 
      4 N          27.0773   -3.6635    0.4522 N.am      1 UNK        -0.4892 
      5 CA         27.9161   -2.8014   -0.3945 C.3       1 UNK         0.0835 
      6 C6         28.3481   -3.5172   -1.6962 C.3       12 UNK        -0.0855 
      7 S7         29.1893   -5.1085   -1.3842 S.3       12 UNK        -0.2931 
      8 C8         30.8957   -4.7493   -1.9242 C.3       12 UNK         0.0378 
      9 C9         31.0076   -4.3266   -3.3876 C.ar      12 UNK        -0.0802 
     10 C10        31.9341   -3.3419   -3.7478 C.ar      12 UNK        -0.0944 
     11 C11        32.0652   -2.9414   -5.0797 C.ar      12 UNK        -0.0787 
     12 C12        31.2381   -3.5147   -6.0483 C.ar      12 UNK        -0.0862 
     13 C13        30.3046   -4.4983   -5.7118 C.ar      12 UNK        -0.0733 
     14 C14        30.2149   -4.9179   -4.3805 C.ar      12 UNK        -0.0832 
     15 C15        29.4503   -5.1168   -6.8190 C.3       12 UNK         0.0240 
     16 S16        27.7515   -5.5968   -6.3403 S.3       12 UNK        -0.2522 
     17 C17        27.0352   -4.0694   -5.6460 C.3       12 UNK        -0.0967 
     18 CA         26.6773   -2.9938   -6.7111 C.3       5 UNK         0.0660 
     19 N          25.3907   -2.3450   -6.4270 N.am      5 UNK        -0.4015 
     20 C          24.7905   -1.4373   -7.2140 C.2       4 UNK         0.4946 
     21 O          25.2253   -1.0742   -8.3060 O.2       4 UNK        -0.5353 
     22 CA         23.5679   -0.7279   -6.6283 C.3       4 UNK         0.0277 
     23 CB         22.4843   -1.7045   -6.1359 C.3       4 UNK        -0.1981 
     24 N          24.0613    0.0839   -5.5250 N.am      4 UNK        -0.4209 
     25 C          23.8661    1.3883   -5.3338 C.2       3 UNK         0.4942 
     26 O          23.0644    2.0649   -5.9791 O.2       3 UNK        -0.5208 
     27 CA         24.7549    2.0407   -4.2509 C.3       3 UNK         0.0250 
     28 CB         24.3975    3.5182   -4.0047 C.3       3 UNK        -0.1990 
     29 N          24.7429    1.3281   -2.9674 N.am      3 UNK        -0.4232 
     30 C          25.2758    0.1261   -2.7041 C.2       2 UNK         0.4993 
     31 O          25.8609   -0.5694   -3.5454 O.2       2 UNK        -0.5286 
     32 CA         25.0343   -0.4011   -1.2794 C.3       2 UNK         0.0209 
     33 CB         23.5702   -0.8456   -1.1150 C.3       2 UNK        -0.1931 
     34 N          25.8971   -1.5291   -0.9341 N.am      2 UNK        -0.4546 
     35 C          27.2214   -1.4680   -0.7398 C.2       1 UNK         0.5154 
     36 O          27.8816   -0.4299   -0.8046 O.2       1 UNK        -0.5181 
     37 C          27.8034   -1.9493   -6.8331 C.2       5 UNK         0.5014 
     38 O          28.5248   -1.9302   -7.8337 O.2       5 UNK        -0.5248 
     39 N          27.8978   -1.0688   -5.8236 N.am      6 UNK        -0.4434 
     40 CA         28.9128   -0.0203   -5.7668 C.3       6 UNK         0.0363 
     41 CB         28.9517    0.6010   -4.3628 C.3       6 UNK        -0.1936 
     42 C          28.7280    1.0578   -6.8432 C.2       6 UNK         0.5081 
     43 O          29.7229    1.5842   -7.3374 O.2       6 UNK        -0.5248 
     44 N          27.4710    1.3403   -7.2151 N.am      7 UNK        -0.4718 
     45 CA         27.1234    2.2712   -8.2904 C.3       7 UNK         0.0273 
     46 CB         25.6401    2.6570   -8.1973 C.3       7 UNK        -0.1935 
     47 C          27.4536    1.7076   -9.6803 C.2       7 UNK         0.5018 
     48 O          27.9642    2.4507  -10.5179 O.2       7 UNK        -0.5186 
     49 N          27.1855    0.4100   -9.8934 N.am      8 UNK        -0.4240 
     50 CA         27.5113   -0.3124  -11.1259 C.3       8 UNK         0.0235 
     51 CB         26.8703   -1.7095  -11.0974 C.3       8 UNK        -0.2000 
     52 C          29.0252   -0.4119  -11.3717 C.2       8 UNK         0.4941 
     53 O          29.4680   -0.1991  -12.5012 O.2       8 UNK        -0.5273 
     54 N          29.7903   -0.7104  -10.3123 N.am      9 UNK        -0.4262 
     55 CA         31.2552   -0.7473  -10.3500 C.3       9 UNK         0.0264 
     56 CB         31.7636   -1.5716   -9.1619 C.3       9 UNK        -0.1955 
     57 C          31.9084    0.6461  -10.3444 C.2       9 UNK         0.5031 
     58 O          33.0451    0.7709  -10.8022 O.2       9 UNK        -0.5390 
     59 N          31.1975    1.6479   -9.8064 N.am      10 UNK        -0.4204 
     60 CA         31.6349    3.0242   -9.5464 C.3       10 UNK         0.0237 
     61 CB         31.9354    3.7747  -10.8617 C.3       10 UNK        -0.1985 
     62 C          32.7860    3.0943   -8.5214 C.2       10 UNK         0.4970 
     63 O          33.6798    3.9321   -8.6606 O.2       10 UNK        -0.4914 
     64 N          32.7472    2.2087   -7.5170 N.am      11 UNK        -0.4285 
     65 CA         33.7175    2.1474   -6.4154 C.3       11 UNK         0.1007 
     66 C          33.3468    3.0919   -5.2372 C.2       11 UNK         0.5703 
     67 N          34.2679    3.3100   -4.3077 N.am      11 UNK        -0.7361 
     68 O          32.2427    3.6270   -5.1490 O.2       11 UNK        -0.4986 
     69 C69        33.9959    0.6849   -5.9696 C.3       12 UNK        -0.0947 
     70 S70        32.5438   -0.2163   -5.3332 S.3       12 UNK        -0.2240 
     71 C71        33.1307   -1.9298   -5.4817 C.3       12 UNK         0.0194 
     72 H72        25.6168   -5.2698    1.7901 H         1 UNK         0.0906 
     73 H73        26.3655   -4.8004    3.3172 H         1 UNK         0.0906 
     74 H74        24.9230   -3.9580    2.7451 H         1 UNK         0.0906 
     75 H75        26.7830   -4.5318    0.0269 H         1 UNK         0.3140 
     76 H76        28.8161   -2.5555    0.1736 H         1 UNK         0.1085 
     77 H77        27.4809   -3.7216   -2.3271 H         1 UNK         0.0836 
     78 H78        28.9969   -2.8655   -2.2849 H         1 UNK         0.0836 
     79 H79        31.5067   -5.6397   -1.7712 H         1 UNK         0.0731 
     80 H80        31.3047   -3.9763   -1.2716 H         1 UNK         0.0731 
     81 H81        32.5678   -2.8948   -2.9938 H         1 UNK         0.1312 
     82 H82        31.3348   -3.2100   -7.0769 H         1 UNK         0.1406 
     83 H83        29.5157   -5.6982   -4.1138 H         1 UNK         0.1631 
     84 H84        29.9634   -6.0071   -7.1841 H         1 UNK         0.0717 
     85 H85        29.3846   -4.4395   -7.6712 H         1 UNK         0.0717 
     86 H86        26.1327   -4.3916   -5.1241 H         1 UNK         0.0934 
     87 H87        27.6841   -3.6842   -4.8571 H         1 UNK         0.0934 
     88 H88        26.5693   -3.4752   -7.6856 H         1 UNK         0.0739 
     89 H89        24.9649   -2.5712   -5.5406 H         1 UNK         0.3093 
     90 H90        23.1422   -0.0939   -7.4094 H         1 UNK         0.0818 
     91 H91        21.5974   -1.1633   -5.8060 H         1 UNK         0.0819 
     92 H92        22.1724   -2.3774   -6.9358 H         1 UNK         0.0819 
     93 H93        22.8220   -2.3178   -5.3001 H         1 UNK         0.0819 
     94 H94        24.7421   -0.3540   -4.9058 H         1 UNK         0.3041 
     95 H95        25.7765    2.0140   -4.6347 H         1 UNK         0.0784 
     96 H96        24.4638    4.0977   -4.9267 H         1 UNK         0.0793 
     97 H97        23.3821    3.6290   -3.6221 H         1 UNK         0.0793 
     98 H98        25.0793    3.9786   -3.2893 H         1 UNK         0.0793 
     99 H99        24.2448    1.7941   -2.2224 H         1 UNK         0.3024 
    100 H100       25.2443    0.4091   -0.5771 H         1 UNK         0.1171 
    101 H101       23.3745   -1.1991   -0.1022 H         1 UNK         0.0786 
    102 H102       22.8792   -0.0228   -1.3033 H         1 UNK         0.0786 
    103 H103       23.3130   -1.6498   -1.8060 H         1 UNK         0.0786 
    104 H104       25.4541   -2.4330   -0.8645 H         1 UNK         0.2977 
    105 H105       27.2559   -1.1238   -5.0397 H         1 UNK         0.3127 
    106 H106       29.8705   -0.5033   -5.9565 H         1 UNK         0.0770 
    107 H107       28.0163    1.1002   -4.1113 H         1 UNK         0.0814 
    108 H108       29.7481    1.3434   -4.2913 H         1 UNK         0.0814 
    109 H109       29.1448   -0.1538   -3.6000 H         1 UNK         0.0814 
    110 H110       26.7182    0.8195   -6.7932 H         1 UNK         0.2983 
    111 H111       27.7159    3.1796   -8.1571 H         1 UNK         0.0947 
    112 H112       25.3638    3.3388   -9.0028 H         1 UNK         0.0806 
    113 H113       25.4230    3.1678   -7.2596 H         1 UNK         0.0806 
    114 H114       24.9868    1.7869   -8.2709 H         1 UNK         0.0806 
    115 H115       26.7047   -0.1210   -9.1720 H         1 UNK         0.3000 
    116 H116       27.0774    0.2433  -11.9599 H         1 UNK         0.0850 
    117 H117       27.0983   -2.2638  -12.0087 H         1 UNK         0.0810 
    118 H118       25.7848   -1.6443  -11.0206 H         1 UNK         0.0810 
    119 H119       27.2280   -2.3022  -10.2546 H         1 UNK         0.0810 
    120 H120       29.3394   -0.9413   -9.4307 H         1 UNK         0.3040 
    121 H121       31.5672   -1.2502  -11.2680 H         1 UNK         0.0766 
    122 H122       31.4307   -1.1500   -8.2123 H         1 UNK         0.0812 
    123 H123       32.8539   -1.6076   -9.1421 H         1 UNK         0.0812 
    124 H124       31.4056   -2.5986   -9.2288 H         1 UNK         0.0812 
    125 H125       30.3020    1.4136   -9.3949 H         1 UNK         0.3205 
    126 H126       30.7859    3.5219   -9.0753 H         1 UNK         0.0754 
    127 H127       32.1163    4.8338  -10.6744 H         1 UNK         0.0769 
    128 H128       31.0960    3.7077  -11.5541 H         1 UNK         0.0769 
    129 H129       32.8183    3.3786  -11.3639 H         1 UNK         0.0769 
    130 H130       31.9184    1.6364   -7.4116 H         1 UNK         0.2981 
    131 H131       34.6667    2.5273   -6.7984 H         1 UNK         0.0541 
    132 H132       35.1781    2.8805   -4.3623 H         1 UNK         0.3459 
    133 H133       34.0466    3.9174   -3.5343 H         1 UNK         0.3459 
    134 H134       34.7764    0.6569   -5.2077 H         1 UNK         0.0612 
    135 H135       34.3965    0.1303   -6.8196 H         1 UNK         0.0612 
    136 H136       33.4475   -2.1138   -6.5094 H         1 UNK         0.0624 
    137 H137       34.0180   -2.0580   -4.8598 H         1 UNK         0.0624 
@<TRIPOS>BOND
     1    1    2 1    
     2    1   72 1    
     3    1   73 1    
     4    1   74 1    
     5    2    3 2    
     6    2    4 am   BACKBONE|DICT|INTERRES
     7    4    5 1    
     8    4   75 1    
     9    5    6 1    
    10    5   35 1    
    11    5   76 1    
    12    6    7 1    
    13    6   77 1    
    14    6   78 1    
    15    7    8 1    
    16    8    9 1    
    17    8   79 1    
    18    8   80 1    
    19    9   10 ar   
    20    9   14 ar   
    21   10   11 ar   
    22   10   81 1    
    23   11   12 ar   
    24   11   71 1    
    25   12   13 ar   
    26   12   82 1    
    27   13   14 ar   
    28   13   15 1    
    29   14   83 1    
    30   15   16 1    
    31   15   84 1    
    32   15   85 1    
    33   16   17 1    
    34   17   18 1    
    35   17   86 1    
    36   17   87 1    
    37   18   19 1    
    38   18   37 1    
    39   18   88 1    
    40   19   20 am   BACKBONE|DICT|INTERRES
    41   19   89 1    
    42   20   21 2    
    43   20   22 1    
    44   22   23 1    
    45   22   24 1    
    46   22   90 1    
    47   23   91 1    
    48   23   92 1    
    49   23   93 1    
    50   24   25 am   BACKBONE|DICT|INTERRES
    51   24   94 1    
    52   25   26 2    
    53   25   27 1    
    54   27   28 1    
    55   27   29 1    
    56   27   95 1    
    57   28   96 1    
    58   28   97 1    
    59   28   98 1    
    60   29   30 am   BACKBONE|DICT|INTERRES
    61   29   99 1    
    62   30   31 2    
    63   30   32 1    
    64   32   33 1    
    65   32   34 1    
    66   32  100 1    
    67   33  101 1    
    68   33  102 1    
    69   33  103 1    
    70   34   35 am   BACKBONE|DICT|INTERRES
    71   34  104 1    
    72   35   36 2    
    73   37   38 2    
    74   37   39 am   BACKBONE|DICT|INTERRES
    75   39   40 1    
    76   39  105 1    
    77   40   41 1    
    78   40   42 1    
    79   40  106 1    
    80   41  107 1    
    81   41  108 1    
    82   41  109 1    
    83   42   43 2    
    84   42   44 am   BACKBONE|DICT|INTERRES
    85   44   45 1    
    86   44  110 1    
    87   45   46 1    
    88   45   47 1    
    89   45  111 1    
    90   46  112 1    
    91   46  113 1    
    92   46  114 1    
    93   47   48 2    
    94   47   49 am   BACKBONE|DICT|INTERRES
    95   49   50 1    
    96   49  115 1    
    97   50   51 1    
    98   50   52 1    
    99   50  116 1    
   100   51  117 1    
   101   51  118 1    
   102   51  119 1    
   103   52   53 2    
   104   52   54 am   BACKBONE|DICT|INTERRES
   105   54   55 1    
   106   54  120 1    
   107   55   56 1    
   108   55   57 1    
   109   55  121 1    
   110   56  122 1    
   111   56  123 1    
   112   56  124 1    
   113   57   58 2    
   114   57   59 am   BACKBONE|DICT|INTERRES
   115   59   60 1    
   116   59  125 1    
   117   60   61 1    
   118   60   62 1    
   119   60  126 1    
   120   61  127 1    
   121   61  128 1    
   122   61  129 1    
   123   62   63 2    
   124   62   64 am   BACKBONE|DICT|INTERRES
   125   64   65 1    
   126   64  130 1    
   127   65   66 1    
   128   65   69 1    
   129   65  131 1    
   130   66   67 am   BACKBONE|DICT|INTERRES
   131   66   68 2    
   132   67  132 1    
   133   67  133 1    
   134   69   70 1    
   135   69  134 1    
   136   69  135 1    
   137   70   71 1    
   138   71  136 1    
   139   71  137 1    
@<TRIPOS>SUBSTRUCTURE
     1 UNK         1 GROUP             0       ****    0 ROOT    
