@<TRIPOS>MOLECULE
3R137
137   139    1
SMALL
USER_CHARGES


@<TRIPOS>ATOM
      1 CA         30.7171    1.2212   -2.3314 C.3       0 UNK        -0.2020 
      2 C          29.9942   -0.1063   -2.4993 C.2       0 UNK         0.4855 
      3 O          29.5310   -0.4135   -3.5950 O.2       0 UNK        -0.5197 
      4 N          29.8990   -0.8945   -1.4213 N.am      1 UNK        -0.4892 
      5 CA         29.1498   -2.1527   -1.3786 C.3       1 UNK         0.0835 
      6 C6         29.6426   -3.0454   -0.2108 C.3       12 UNK        -0.0855 
      7 S7         29.0236   -4.7619   -0.2999 S.3       12 UNK        -0.2931 
      8 C8         30.4353   -5.6386   -1.0474 C.3       12 UNK         0.0378 
      9 C9         30.7055   -5.1628   -2.4670 C.ar      12 UNK        -0.0802 
     10 C10        31.8609   -4.4305   -2.7600 C.ar      12 UNK        -0.0944 
     11 C11        32.0957   -3.9704   -4.0590 C.ar      12 UNK        -0.0787 
     12 C12        31.1682   -4.2490   -5.0650 C.ar      12 UNK        -0.0862 
     13 C13        30.0066   -4.9723   -4.7839 C.ar      12 UNK        -0.0733 
     14 C14        29.7878   -5.4408   -3.4855 C.ar      12 UNK        -0.0832 
     15 C15        28.9834   -5.2312   -5.8812 C.3       12 UNK         0.0240 
     16 S16        27.4437   -4.2962   -5.6091 S.3       12 UNK        -0.2522 
     17 C17        28.0213   -2.5653   -5.6659 C.3       12 UNK        -0.0967 
     18 CA         27.3245   -1.7225   -6.7604 C.3       5 UNK         0.0660 
     19 N          25.8642   -1.7420   -6.6329 N.am      5 UNK        -0.4015 
     20 C          25.0000   -1.2688   -7.5404 C.2       4 UNK         0.4946 
     21 O          25.3359   -0.7773   -8.6171 O.2       4 UNK        -0.5353 
     22 CA         23.5077   -1.3268   -7.1713 C.3       4 UNK         0.0277 
     23 CB         22.9289   -2.7172   -7.4780 C.3       4 UNK        -0.1981 
     24 N          23.2555   -0.9862   -5.7684 N.am      4 UNK        -0.4209 
     25 C          23.4516    0.2308   -5.2400 C.2       3 UNK         0.4942 
     26 O          23.8159    1.2091   -5.8905 O.2       3 UNK        -0.5208 
     27 CA         23.2636    0.3681   -3.7181 C.3       3 UNK         0.0250 
     28 CB         21.7843    0.6033   -3.3744 C.3       3 UNK        -0.1990 
     29 N          23.7761   -0.7731   -2.9477 N.am      3 UNK        -0.4232 
     30 C          25.0387   -1.2200   -2.9998 C.2       2 UNK         0.4993 
     31 O          25.8964   -0.7371   -3.7413 O.2       2 UNK        -0.5286 
     32 CA         25.3774   -2.4409   -2.1267 C.3       2 UNK         0.0209 
     33 CB         24.7568   -3.7179   -2.7191 C.3       2 UNK        -0.1931 
     34 N          26.8245   -2.6364   -2.0067 N.am      2 UNK        -0.4546 
     35 C          27.6381   -1.8547   -1.2854 C.2       1 UNK         0.5154 
     36 O          27.2391   -0.9485   -0.5474 O.2       1 UNK        -0.5181 
     37 C          27.8612   -0.2782   -6.7501 C.2       5 UNK         0.5014 
     38 O          28.7184    0.0597   -7.5697 O.2       5 UNK        -0.5248 
     39 N          27.3170    0.5499   -5.8471 N.am      6 UNK        -0.4434 
     40 CA         27.6050    1.9776   -5.7361 C.3       6 UNK         0.0363 
     41 CB         26.9770    2.5312   -4.4478 C.3       6 UNK        -0.1936 
     42 C          27.1332    2.7663   -6.9683 C.2       6 UNK         0.5081 
     43 O          27.8911    3.5929   -7.4738 O.2       6 UNK        -0.5248 
     44 N          25.9191    2.4741   -7.4601 N.am      7 UNK        -0.4718 
     45 CA         25.3516    3.0591   -8.6812 C.3       7 UNK         0.0273 
     46 CB         23.8775    2.6487   -8.8208 C.3       7 UNK        -0.1935 
     47 C          26.1389    2.6898   -9.9500 C.2       7 UNK         0.5018 
     48 O          26.3241    3.5450  -10.8165 O.2       7 UNK        -0.5186 
     49 N          26.6190    1.4403  -10.0207 N.am      8 UNK        -0.4240 
     50 CA         27.5175    0.9479  -11.0689 C.3       8 UNK         0.0235 
     51 CB         27.5198   -0.5900  -11.0419 C.3       8 UNK        -0.2000 
     52 C          28.9585    1.4830  -10.9514 C.2       8 UNK         0.4941 
     53 O          29.7229    1.3318  -11.9050 O.2       8 UNK        -0.5273 
     54 N          29.3061    2.0714   -9.7957 N.am      9 UNK        -0.4262 
     55 CA         30.6298    2.5577   -9.3940 C.3       9 UNK         0.0264 
     56 CB         31.0591    3.7678  -10.2504 C.3       9 UNK        -0.1955 
     57 C          31.6795    1.4308   -9.3595 C.2       9 UNK         0.5031 
     58 O          32.8032    1.6175   -9.8315 O.2       9 UNK        -0.5390 
     59 N          31.2882    0.2728   -8.8069 N.am      10 UNK        -0.4204 
     60 CA         32.1241   -0.9279   -8.7063 C.3       10 UNK         0.0237 
     61 CB         31.2431   -2.1187   -8.3022 C.3       10 UNK        -0.1985 
     62 C          33.3106   -0.7740   -7.7362 C.2       10 UNK         0.4970 
     63 O          34.3443   -1.4106   -7.9431 O.2       10 UNK        -0.4914 
     64 N          33.1457    0.0740   -6.7180 N.am      11 UNK        -0.4285 
     65 CA         34.1582    0.4757   -5.7373 C.3       11 UNK         0.1007 
     66 C          33.7357    1.7945   -5.0347 C.2       11 UNK         0.5703 
     67 N          34.5932    2.3606   -4.1966 N.am      11 UNK        -0.7361 
     68 O          32.6440    2.3200   -5.2502 O.2       11 UNK        -0.4986 
     69 C69        34.5649   -0.6608   -4.7522 C.3       12 UNK        -0.0947 
     70 S70        33.1577   -1.4317   -3.8812 S.3       12 UNK        -0.2240 
     71 C71        33.3454   -3.1683   -4.3826 C.3       12 UNK         0.0194 
     72 H72        30.1384    2.0246   -2.7867 H         1 UNK         0.0906 
     73 H73        31.6876    1.1808   -2.8240 H         1 UNK         0.0906 
     74 H74        30.8763    1.4699   -1.2826 H         1 UNK         0.0906 
     75 H75        30.2671   -0.5730   -0.5378 H         1 UNK         0.3140 
     76 H76        29.3407   -2.6769   -2.3181 H         1 UNK         0.1085 
     77 H77        29.3491   -2.6203    0.7510 H         1 UNK         0.0836 
     78 H78        30.7334   -3.0737   -0.1994 H         1 UNK         0.0836 
     79 H79        31.3163   -5.5128   -0.4158 H         1 UNK         0.0731 
     80 H80        30.2202   -6.7079   -1.0626 H         1 UNK         0.0731 
     81 H81        32.5732   -4.2056   -1.9779 H         1 UNK         0.1312 
     82 H82        31.3477   -3.8923   -6.0677 H         1 UNK         0.1406 
     83 H83        28.8881   -5.9980   -3.2611 H         1 UNK         0.1631 
     84 H84        28.7501   -6.2962   -5.9120 H         1 UNK         0.0717 
     85 H85        29.3868   -4.9763   -6.8626 H         1 UNK         0.0717 
     86 H86        27.8553   -2.1321   -4.6797 H         1 UNK         0.0934 
     87 H87        29.1007   -2.5402   -5.8117 H         1 UNK         0.0934 
     88 H88        27.5741   -2.1551   -7.7315 H         1 UNK         0.0739 
     89 H89        25.5071   -2.0843   -5.7538 H         1 UNK         0.3093 
     90 H90        22.9858   -0.5964   -7.7932 H         1 UNK         0.0818 
     91 H91        23.0924   -2.9839   -8.5232 H         1 UNK         0.0819 
     92 H92        23.3907   -3.4946   -6.8678 H         1 UNK         0.0819 
     93 H93        21.8533   -2.7465   -7.3032 H         1 UNK         0.0819 
     94 H94        22.9473   -1.7303   -5.1600 H         1 UNK         0.3041 
     95 H95        23.8285    1.2479   -3.4030 H         1 UNK         0.0784 
     96 H96        21.3874    1.4578   -3.9246 H         1 UNK         0.0793 
     97 H97        21.1671   -0.2604   -3.6246 H         1 UNK         0.0793 
     98 H98        21.6518    0.8154   -2.3132 H         1 UNK         0.0793 
     99 H99        23.1225   -1.2270   -2.3254 H         1 UNK         0.3024 
    100 H100       24.9673   -2.2731   -1.1281 H         1 UNK         0.1171 
    101 H101       23.6690   -3.6498   -2.7569 H         1 UNK         0.0786 
    102 H102       25.1060   -3.9054   -3.7347 H         1 UNK         0.0786 
    103 H103       25.0004   -4.5929   -2.1160 H         1 UNK         0.0786 
    104 H104       27.2308   -3.3544   -2.5883 H         1 UNK         0.2977 
    105 H105       26.6824    0.1544   -5.1547 H         1 UNK         0.3127 
    106 H106       28.6890    2.0886   -5.6611 H         1 UNK         0.0770 
    107 H107       25.8909    2.4355   -4.4543 H         1 UNK         0.0814 
    108 H108       27.2132    3.5884   -4.3215 H         1 UNK         0.0814 
    109 H109       27.3527    2.0048   -3.5697 H         1 UNK         0.0814 
    110 H110       25.3259    1.8243   -6.9499 H         1 UNK         0.2983 
    111 H111       25.3935    4.1453   -8.5760 H         1 UNK         0.0947 
    112 H112       23.7657    1.5665   -8.8931 H         1 UNK         0.0806 
    113 H113       23.4327    3.0846   -9.7164 H         1 UNK         0.0806 
    114 H114       23.2893    2.9893   -7.9686 H         1 UNK         0.0806 
    115 H115       26.3465    0.7717   -9.3046 H         1 UNK         0.3000 
    116 H116       27.1274    1.2737  -12.0353 H         1 UNK         0.0850 
    117 H117       28.1525   -0.9966  -11.8319 H         1 UNK         0.0810 
    118 H118       26.5171   -0.9907  -11.1917 H         1 UNK         0.0810 
    119 H119       27.8949   -0.9741  -10.0925 H         1 UNK         0.0810 
    120 H120       28.5967    2.1328   -9.0760 H         1 UNK         0.3040 
    121 H121       30.5251    2.9042   -8.3647 H         1 UNK         0.0766 
    122 H122       31.2331    3.4888  -11.2900 H         1 UNK         0.0812 
    123 H123       31.9843    4.2040   -9.8722 H         1 UNK         0.0812 
    124 H124       30.3016    4.5514  -10.2348 H         1 UNK         0.0812 
    125 H125       30.3427    0.2091   -8.4282 H         1 UNK         0.3205 
    126 H126       32.5359   -1.1295   -9.6974 H         1 UNK         0.0754 
    127 H127       31.8249   -3.0405   -8.2681 H         1 UNK         0.0769 
    128 H128       30.4306   -2.2727   -9.0129 H         1 UNK         0.0769 
    129 H129       30.8020   -1.9644   -7.3179 H         1 UNK         0.0769 
    130 H130       32.2711    0.5738   -6.6269 H         1 UNK         0.2981 
    131 H131       35.0454    0.7431   -6.3141 H         1 UNK         0.0541 
    132 H132       34.3326    3.2201   -3.7397 H         1 UNK         0.3459 
    133 H133       35.4951    1.9507   -4.0144 H         1 UNK         0.3459 
    134 H134       35.2693   -0.2959   -4.0036 H         1 UNK         0.0612 
    135 H135       35.1124   -1.4290   -5.2991 H         1 UNK         0.0612 
    136 H136       34.2097   -3.6000   -3.8763 H         1 UNK         0.0624 
    137 H137       33.5541   -3.2163   -5.4528 H         1 UNK         0.0624 
@<TRIPOS>BOND
     1    1    2 1    
     2    1   72 1    
     3    1   73 1    
     4    1   74 1    
     5    2    3 2    
     6    2    4 am   BACKBONE|DICT|INTERRES
     7    4    5 1    
     8    4   75 1    
     9    5    6 1    
    10    5   35 1    
    11    5   76 1    
    12    6    7 1    
    13    6   77 1    
    14    6   78 1    
    15    7    8 1    
    16    8    9 1    
    17    8   79 1    
    18    8   80 1    
    19    9   10 ar   
    20    9   14 ar   
    21   10   11 ar   
    22   10   81 1    
    23   11   12 ar   
    24   11   71 1    
    25   12   13 ar   
    26   12   82 1    
    27   13   14 ar   
    28   13   15 1    
    29   14   83 1    
    30   15   16 1    
    31   15   84 1    
    32   15   85 1    
    33   16   17 1    
    34   17   18 1    
    35   17   86 1    
    36   17   87 1    
    37   18   19 1    
    38   18   37 1    
    39   18   88 1    
    40   19   20 am   BACKBONE|DICT|INTERRES
    41   19   89 1    
    42   20   21 2    
    43   20   22 1    
    44   22   23 1    
    45   22   24 1    
    46   22   90 1    
    47   23   91 1    
    48   23   92 1    
    49   23   93 1    
    50   24   25 am   BACKBONE|DICT|INTERRES
    51   24   94 1    
    52   25   26 2    
    53   25   27 1    
    54   27   28 1    
    55   27   29 1    
    56   27   95 1    
    57   28   96 1    
    58   28   97 1    
    59   28   98 1    
    60   29   30 am   BACKBONE|DICT|INTERRES
    61   29   99 1    
    62   30   31 2    
    63   30   32 1    
    64   32   33 1    
    65   32   34 1    
    66   32  100 1    
    67   33  101 1    
    68   33  102 1    
    69   33  103 1    
    70   34   35 am   BACKBONE|DICT|INTERRES
    71   34  104 1    
    72   35   36 2    
    73   37   38 2    
    74   37   39 am   BACKBONE|DICT|INTERRES
    75   39   40 1    
    76   39  105 1    
    77   40   41 1    
    78   40   42 1    
    79   40  106 1    
    80   41  107 1    
    81   41  108 1    
    82   41  109 1    
    83   42   43 2    
    84   42   44 am   BACKBONE|DICT|INTERRES
    85   44   45 1    
    86   44  110 1    
    87   45   46 1    
    88   45   47 1    
    89   45  111 1    
    90   46  112 1    
    91   46  113 1    
    92   46  114 1    
    93   47   48 2    
    94   47   49 am   BACKBONE|DICT|INTERRES
    95   49   50 1    
    96   49  115 1    
    97   50   51 1    
    98   50   52 1    
    99   50  116 1    
   100   51  117 1    
   101   51  118 1    
   102   51  119 1    
   103   52   53 2    
   104   52   54 am   BACKBONE|DICT|INTERRES
   105   54   55 1    
   106   54  120 1    
   107   55   56 1    
   108   55   57 1    
   109   55  121 1    
   110   56  122 1    
   111   56  123 1    
   112   56  124 1    
   113   57   58 2    
   114   57   59 am   BACKBONE|DICT|INTERRES
   115   59   60 1    
   116   59  125 1    
   117   60   61 1    
   118   60   62 1    
   119   60  126 1    
   120   61  127 1    
   121   61  128 1    
   122   61  129 1    
   123   62   63 2    
   124   62   64 am   BACKBONE|DICT|INTERRES
   125   64   65 1    
   126   64  130 1    
   127   65   66 1    
   128   65   69 1    
   129   65  131 1    
   130   66   67 am   BACKBONE|DICT|INTERRES
   131   66   68 2    
   132   67  132 1    
   133   67  133 1    
   134   69   70 1    
   135   69  134 1    
   136   69  135 1    
   137   70   71 1    
   138   71  136 1    
   139   71  137 1    
@<TRIPOS>SUBSTRUCTURE
     1 UNK         1 GROUP             0       ****    0 ROOT    
