@<TRIPOS>MOLECULE
3R137
137   139    1
SMALL
USER_CHARGES


@<TRIPOS>ATOM
      1 CA         28.1469   -0.1050    1.9136 C.3       0 UNK        -0.2020 
      2 C          27.7953   -1.3549    1.1207 C.2       0 UNK         0.4855 
      3 O          27.1255   -2.2416    1.6494 O.2       0 UNK        -0.5197 
      4 N          28.2282   -1.4168   -0.1476 N.am      1 UNK        -0.4892 
      5 CA         28.0689   -2.5393   -1.0941 C.3       1 UNK         0.0835 
      6 C6         28.6847   -3.8779   -0.5887 C.3       12 UNK        -0.0855 
      7 S7         30.4278   -3.7170   -0.0528 S.3       12 UNK        -0.2931 
      8 C8         31.3258   -4.7257   -1.2757 C.3       12 UNK         0.0378 
      9 C9         31.3786   -4.0535   -2.6394 C.ar      12 UNK        -0.0802 
     10 C10        32.3088   -3.0385   -2.8901 C.ar      12 UNK        -0.0944 
     11 C11        32.3544   -2.4131   -4.1400 C.ar      12 UNK        -0.0787 
     12 C12        31.4611   -2.8070   -5.1391 C.ar      12 UNK        -0.0862 
     13 C13        30.5328   -3.8248   -4.9027 C.ar      12 UNK        -0.0733 
     14 C14        30.5025   -4.4509   -3.6535 C.ar      12 UNK        -0.0832 
     15 C15        29.5478   -4.2310   -5.9906 C.3       12 UNK         0.0240 
     16 S16        27.8219   -3.9006   -5.5088 S.3       12 UNK        -0.2522 
     17 C17        27.8478   -2.0957   -5.2449 C.3       12 UNK        -0.0967 
     18 CA         27.1402   -1.3430   -6.3873 C.3       5 UNK         0.0660 
     19 N          25.7064   -1.6226   -6.4366 N.am      5 UNK        -0.4015 
     20 C          24.9162   -1.3415   -7.4797 C.2       4 UNK         0.4946 
     21 O          25.3168   -0.8428   -8.5321 O.2       4 UNK        -0.5353 
     22 CA         23.4162   -1.6178   -7.2899 C.3       4 UNK         0.0277 
     23 CB         23.1100   -3.1148   -7.4573 C.3       4 UNK        -0.1981 
     24 N          22.9239   -1.1510   -5.9900 N.am      4 UNK        -0.4209 
     25 C          22.9044    0.1362   -5.6163 C.2       3 UNK         0.4942 
     26 O          23.2651    1.0638   -6.3402 O.2       3 UNK        -0.5208 
     27 CA         22.4285    0.4476   -4.1886 C.3       3 UNK         0.0250 
     28 CB         20.8988    0.5963   -4.1576 C.3       3 UNK        -0.1990 
     29 N          22.8465   -0.5132   -3.1602 N.am      3 UNK        -0.4232 
     30 C          24.1070   -0.8758   -2.8779 C.2       2 UNK         0.4993 
     31 O          25.0845   -0.5549   -3.5591 O.2       2 UNK        -0.5286 
     32 CA         24.2844   -1.6982   -1.5893 C.3       2 UNK         0.0209 
     33 CB         23.5337   -3.0478   -1.6415 C.3       2 UNK        -0.1931 
     34 N          25.6959   -1.8400   -1.1982 N.am      2 UNK        -0.4546 
     35 C          26.6164   -2.7280   -1.6066 C.2       1 UNK         0.5154 
     36 O          26.3734   -3.6630   -2.3690 O.2       1 UNK        -0.5181 
     37 C          27.4155    0.1654   -6.2921 C.2       5 UNK         0.5014 
     38 O          28.3495    0.6341   -6.9370 O.2       5 UNK        -0.5248 
     39 N          26.5988    0.9073   -5.5294 N.am      6 UNK        -0.4434 
     40 CA         26.6766    2.3686   -5.4323 C.3       6 UNK         0.0363 
     41 CB         25.6921    2.8767   -4.3682 C.3       6 UNK        -0.1936 
     42 C          26.4374    3.0708   -6.7823 C.2       6 UNK         0.5081 
     43 O          27.1261    4.0454   -7.0848 O.2       6 UNK        -0.5248 
     44 N          25.4930    2.5486   -7.5776 N.am      7 UNK        -0.4718 
     45 CA         25.2166    2.9991   -8.9421 C.3       7 UNK         0.0273 
     46 CB         23.8592    2.4431   -9.4022 C.3       7 UNK        -0.1935 
     47 C          26.3300    2.6146   -9.9322 C.2       7 UNK         0.5018 
     48 O          26.7377    3.4568  -10.7332 O.2       7 UNK        -0.5186 
     49 N          26.7945    1.3576   -9.8719 N.am      8 UNK        -0.4240 
     50 CA         27.8279    0.8164  -10.7626 C.3       8 UNK         0.0235 
     51 CB         27.8116   -0.7188  -10.6828 C.3       8 UNK        -0.2000 
     52 C          29.2472    1.3377  -10.4753 C.2       8 UNK         0.4941 
     53 O          30.0757    1.3499  -11.3878 O.2       8 UNK        -0.5273 
     54 N          29.5194    1.7066   -9.2163 N.am      9 UNK        -0.4262 
     55 CA         30.8116    2.0556   -8.6162 C.3       9 UNK         0.0264 
     56 CB         31.4905    3.2533   -9.3114 C.3       9 UNK        -0.1955 
     57 C          31.7377    0.8344   -8.5025 C.2       9 UNK         0.5031 
     58 O          32.0568    0.4250   -7.3860 O.2       9 UNK        -0.5390 
     59 N          32.1213    0.2658   -9.6545 N.am      10 UNK        -0.4204 
     60 CA         32.9311   -0.9397   -9.8842 C.3       10 UNK         0.0237 
     61 CB         32.1988   -2.1992   -9.3822 C.3       10 UNK        -0.1985 
     62 C          34.3736   -0.8832   -9.3444 C.2       10 UNK         0.4970 
     63 O          35.3073   -1.1389  -10.1061 O.2       10 UNK        -0.4914 
     64 N          34.5323   -0.5726   -8.0548 N.am      11 UNK        -0.4285 
     65 CA         35.8174   -0.4298   -7.3591 C.3       11 UNK         0.1007 
     66 C          36.6039    0.8246   -7.8274 C.2       11 UNK         0.5703 
     67 N          37.9287    0.7632   -7.8199 N.am      11 UNK        -0.7361 
     68 O          36.0297    1.8612   -8.1581 O.2       11 UNK        -0.4986 
     69 C69        35.6375   -0.4247   -5.8177 C.3       12 UNK        -0.0947 
     70 S70        34.8609   -1.9566   -5.1988 S.3       12 UNK        -0.2240 
     71 C71        33.3538   -1.3019   -4.4191 C.3       12 UNK         0.0194 
     72 H72        28.7243    0.6061    1.3231 H         1 UNK         0.0906 
     73 H73        27.2392    0.3935    2.2525 H         1 UNK         0.0906 
     74 H74        28.7359   -0.3727    2.7906 H         1 UNK         0.0906 
     75 H75        28.7655   -0.6406   -0.5098 H         1 UNK         0.3140 
     76 H76        28.6372   -2.2511   -1.9804 H         1 UNK         0.1085 
     77 H77        28.1090   -4.2687    0.2517 H         1 UNK         0.0836 
     78 H78        28.6212   -4.6424   -1.3644 H         1 UNK         0.0836 
     79 H79        32.3426   -4.8891   -0.9154 H         1 UNK         0.0731 
     80 H80        30.8679   -5.7139   -1.3442 H         1 UNK         0.0731 
     81 H81        32.9923   -2.7323   -2.1097 H         1 UNK         0.1312 
     82 H82        31.4861   -2.3091   -6.0981 H         1 UNK         0.1406 
     83 H83        29.7797   -5.2344   -3.4694 H         1 UNK         0.1631 
     84 H84        29.6610   -5.2960   -6.1972 H         1 UNK         0.0717 
     85 H85        29.7601   -3.7105   -6.9260 H         1 UNK         0.0717 
     86 H86        27.3675   -1.8772   -4.2912 H         1 UNK         0.0934 
     87 H87        28.8773   -1.7515   -5.1417 H         1 UNK         0.0934 
     88 H88        27.5756   -1.6824   -7.3298 H         1 UNK         0.0739 
     89 H89        25.2933   -1.9851   -5.5892 H         1 UNK         0.3093 
     90 H90        22.8797   -1.0701   -8.0679 H         1 UNK         0.0818 
     91 H91        22.0381   -3.3079   -7.4102 H         1 UNK         0.0819 
     92 H92        23.4599   -3.4769   -8.4252 H         1 UNK         0.0819 
     93 H93        23.5945   -3.7191   -6.6893 H         1 UNK         0.0819 
     94 H94        22.6055   -1.8491   -5.3337 H         1 UNK         0.3041 
     95 H95        22.8604    1.4103   -3.9109 H         1 UNK         0.0784 
     96 H96        20.5616    1.3217   -4.8997 H         1 UNK         0.0793 
     97 H97        20.3956   -0.3473   -4.3725 H         1 UNK         0.0793 
     98 H98        20.5526    0.9486   -3.1857 H         1 UNK         0.0793 
     99 H99        22.1135   -0.8390   -2.5466 H         1 UNK         0.3024 
    100 H100       23.8331   -1.1080   -0.7898 H         1 UNK         0.1171 
    101 H101       22.4541   -2.8993   -1.6749 H         1 UNK         0.0786 
    102 H102       23.7443   -3.6539   -0.7602 H         1 UNK         0.0786 
    103 H103       23.8024   -3.6313   -2.5226 H         1 UNK         0.0786 
    104 H104       26.0377   -1.1139   -0.5846 H         1 UNK         0.2977 
    105 H105       25.8946    0.4376   -4.9642 H         1 UNK         0.3127 
    106 H106       27.6880    2.6184   -5.1045 H         1 UNK         0.0770 
    107 H107       24.6575    2.7199   -4.6706 H         1 UNK         0.0814 
    108 H108       25.8209    3.9469   -4.2022 H         1 UNK         0.0814 
    109 H109       25.8441    2.3775   -3.4109 H         1 UNK         0.0814 
    110 H110       24.9163    1.7933   -7.2178 H         1 UNK         0.2983 
    111 H111       25.1478    4.0892   -8.9304 H         1 UNK         0.0947 
    112 H112       23.6224    2.7758  -10.4136 H         1 UNK         0.0806 
    113 H113       23.0528    2.7819   -8.7513 H         1 UNK         0.0806 
    114 H114       23.8473    1.3525   -9.4043 H         1 UNK         0.0806 
    115 H115       26.3627    0.7060   -9.2218 H         1 UNK         0.3000 
    116 H116       27.5771    1.1054  -11.7856 H         1 UNK         0.0850 
    117 H117       28.5449   -1.1552  -11.3625 H         1 UNK         0.0810 
    118 H118       26.8359   -1.1203  -10.9573 H         1 UNK         0.0810 
    119 H119       28.0475   -1.0711   -9.6781 H         1 UNK         0.0810 
    120 H120       28.7946    1.5334   -8.5227 H         1 UNK         0.3040 
    121 H121       30.5792    2.3662   -7.5961 H         1 UNK         0.0766 
    122 H122       32.4005    3.5396   -8.7825 H         1 UNK         0.0812 
    123 H123       30.8345    4.1238   -9.3221 H         1 UNK         0.0812 
    124 H124       31.7731    3.0370  -10.3414 H         1 UNK         0.0812 
    125 H125       31.7362    0.6911  -10.4940 H         1 UNK         0.3205 
    126 H126       33.0121   -1.0270  -10.9689 H         1 UNK         0.0754 
    127 H127       32.7598   -3.1015   -9.6294 H         1 UNK         0.0769 
    128 H128       31.2137   -2.2933   -9.8395 H         1 UNK         0.0769 
    129 H129       32.0654   -2.1872   -8.3015 H         1 UNK         0.0769 
    130 H130       33.6983   -0.3084   -7.5349 H         1 UNK         0.2981 
    131 H131       36.4162   -1.3049   -7.6199 H         1 UNK         0.0541 
    132 H132       38.4107   -0.0766   -7.5386 H         1 UNK         0.3459 
    133 H133       38.4578    1.5721   -8.1064 H         1 UNK         0.3459 
    134 H134       35.0523    0.4421   -5.5048 H         1 UNK         0.0612 
    135 H135       36.6058   -0.3305   -5.3228 H         1 UNK         0.0612 
    136 H136       32.8963   -0.5560   -5.0697 H         1 UNK         0.0624 
    137 H137       33.6208   -0.7851   -3.4962 H         1 UNK         0.0624 
@<TRIPOS>BOND
     1    1    2 1    
     2    1   72 1    
     3    1   73 1    
     4    1   74 1    
     5    2    3 2    
     6    2    4 am   BACKBONE|DICT|INTERRES
     7    4    5 1    
     8    4   75 1    
     9    5    6 1    
    10    5   35 1    
    11    5   76 1    
    12    6    7 1    
    13    6   77 1    
    14    6   78 1    
    15    7    8 1    
    16    8    9 1    
    17    8   79 1    
    18    8   80 1    
    19    9   10 ar   
    20    9   14 ar   
    21   10   11 ar   
    22   10   81 1    
    23   11   12 ar   
    24   11   71 1    
    25   12   13 ar   
    26   12   82 1    
    27   13   14 ar   
    28   13   15 1    
    29   14   83 1    
    30   15   16 1    
    31   15   84 1    
    32   15   85 1    
    33   16   17 1    
    34   17   18 1    
    35   17   86 1    
    36   17   87 1    
    37   18   19 1    
    38   18   37 1    
    39   18   88 1    
    40   19   20 am   BACKBONE|DICT|INTERRES
    41   19   89 1    
    42   20   21 2    
    43   20   22 1    
    44   22   23 1    
    45   22   24 1    
    46   22   90 1    
    47   23   91 1    
    48   23   92 1    
    49   23   93 1    
    50   24   25 am   BACKBONE|DICT|INTERRES
    51   24   94 1    
    52   25   26 2    
    53   25   27 1    
    54   27   28 1    
    55   27   29 1    
    56   27   95 1    
    57   28   96 1    
    58   28   97 1    
    59   28   98 1    
    60   29   30 am   BACKBONE|DICT|INTERRES
    61   29   99 1    
    62   30   31 2    
    63   30   32 1    
    64   32   33 1    
    65   32   34 1    
    66   32  100 1    
    67   33  101 1    
    68   33  102 1    
    69   33  103 1    
    70   34   35 am   BACKBONE|DICT|INTERRES
    71   34  104 1    
    72   35   36 2    
    73   37   38 2    
    74   37   39 am   BACKBONE|DICT|INTERRES
    75   39   40 1    
    76   39  105 1    
    77   40   41 1    
    78   40   42 1    
    79   40  106 1    
    80   41  107 1    
    81   41  108 1    
    82   41  109 1    
    83   42   43 2    
    84   42   44 am   BACKBONE|DICT|INTERRES
    85   44   45 1    
    86   44  110 1    
    87   45   46 1    
    88   45   47 1    
    89   45  111 1    
    90   46  112 1    
    91   46  113 1    
    92   46  114 1    
    93   47   48 2    
    94   47   49 am   BACKBONE|DICT|INTERRES
    95   49   50 1    
    96   49  115 1    
    97   50   51 1    
    98   50   52 1    
    99   50  116 1    
   100   51  117 1    
   101   51  118 1    
   102   51  119 1    
   103   52   53 2    
   104   52   54 am   BACKBONE|DICT|INTERRES
   105   54   55 1    
   106   54  120 1    
   107   55   56 1    
   108   55   57 1    
   109   55  121 1    
   110   56  122 1    
   111   56  123 1    
   112   56  124 1    
   113   57   58 2    
   114   57   59 am   BACKBONE|DICT|INTERRES
   115   59   60 1    
   116   59  125 1    
   117   60   61 1    
   118   60   62 1    
   119   60  126 1    
   120   61  127 1    
   121   61  128 1    
   122   61  129 1    
   123   62   63 2    
   124   62   64 am   BACKBONE|DICT|INTERRES
   125   64   65 1    
   126   64  130 1    
   127   65   66 1    
   128   65   69 1    
   129   65  131 1    
   130   66   67 am   BACKBONE|DICT|INTERRES
   131   66   68 2    
   132   67  132 1    
   133   67  133 1    
   134   69   70 1    
   135   69  134 1    
   136   69  135 1    
   137   70   71 1    
   138   71  136 1    
   139   71  137 1    
@<TRIPOS>SUBSTRUCTURE
     1 UNK         1 GROUP             0       ****    0 ROOT    
