@<TRIPOS>MOLECULE
3R137
137   139    1
SMALL
USER_CHARGES


@<TRIPOS>ATOM
      1 CA         30.2997   -4.7517   -1.1018 C.3       0 UNK        -0.2020 
      2 C          29.0139   -4.1916   -0.5121 C.2       0 UNK         0.4855 
      3 O          28.3000   -4.9055    0.1918 O.2       0 UNK        -0.5197 
      4 N          28.7201   -2.9150   -0.7907 N.am      1 UNK        -0.4892 
      5 CA         27.5642   -2.1685   -0.2727 C.3       1 UNK         0.0835 
      6 C6         27.6251   -0.6653   -0.6499 C.3       12 UNK        -0.0855 
      7 S7         29.2165    0.1541   -0.2907 S.3       12 UNK        -0.2931 
      8 C8         29.6328    0.8721   -1.9158 C.3       12 UNK         0.0378 
      9 C9         30.5011   -0.0595   -2.7504 C.ar      12 UNK        -0.0802 
     10 C10        31.8528    0.2444   -2.9348 C.ar      12 UNK        -0.0944 
     11 C11        32.6745   -0.5941   -3.6905 C.ar      12 UNK        -0.0787 
     12 C12        32.1426   -1.7625   -4.2420 C.ar      12 UNK        -0.0862 
     13 C13        30.7950   -2.0858   -4.0579 C.ar      12 UNK        -0.0733 
     14 C14        29.9697   -1.2142   -3.3383 C.ar      12 UNK        -0.0832 
     15 C15        30.2602   -3.4036   -4.5993 C.3       12 UNK         0.0240 
     16 S16        29.6388   -3.2501   -6.2987 S.3       12 UNK        -0.2522 
     17 C17        27.8717   -2.9184   -6.0175 C.3       12 UNK        -0.0967 
     18 CA         27.3002   -1.8355   -6.9617 C.3       5 UNK         0.0660 
     19 N          25.8440   -1.9414   -7.0629 N.am      5 UNK        -0.4015 
     20 C          25.0793   -1.2965   -7.9542 C.2       4 UNK         0.4946 
     21 O          25.5183   -0.5516   -8.8299 O.2       4 UNK        -0.5353 
     22 CA         23.5601   -1.4910   -7.8152 C.3       4 UNK         0.0277 
     23 CB         23.1085   -2.7692   -8.5394 C.3       4 UNK        -0.1981 
     24 N          23.1234   -1.5334   -6.4157 N.am      4 UNK        -0.4209 
     25 C          23.1817   -0.4838   -5.5838 C.2       3 UNK         0.4942 
     26 O          23.5777    0.6320   -5.9185 O.2       3 UNK        -0.5208 
     27 CA         22.7709   -0.7288   -4.1226 C.3       3 UNK         0.0250 
     28 CB         21.2416   -0.6818   -3.9747 C.3       3 UNK        -0.1990 
     29 N          23.2867   -1.9790   -3.5492 N.am      3 UNK        -0.4232 
     30 C          24.5856   -2.2908   -3.4438 C.2       2 UNK         0.4993 
     31 O          25.4962   -1.6155   -3.9321 O.2       2 UNK        -0.5286 
     32 CA         24.9399   -3.5796   -2.6845 C.3       2 UNK         0.0209 
     33 CB         25.1567   -4.7460   -3.6610 C.3       2 UNK        -0.1931 
     34 N          26.1651   -3.3553   -1.9162 N.am      2 UNK        -0.4546 
     35 C          26.1973   -2.7173   -0.7380 C.2       1 UNK         0.5154 
     36 O          25.1942   -2.4945   -0.0576 O.2       1 UNK        -0.5181 
     37 C          27.7284   -0.4155   -6.5475 C.2       5 UNK         0.5014 
     38 O          28.6400    0.1413   -7.1610 O.2       5 UNK        -0.5248 
     39 N          27.0259    0.1531   -5.5551 N.am      6 UNK        -0.4434 
     40 CA         27.1780    1.5333   -5.0938 C.3       6 UNK         0.0363 
     41 CB         26.2884    1.7673   -3.8607 C.3       6 UNK        -0.1936 
     42 C          26.8494    2.5636   -6.1855 C.2       6 UNK         0.5081 
     43 O          27.6151    3.5094   -6.3678 O.2       6 UNK        -0.5248 
     44 N          25.7311    2.3566   -6.8969 N.am      7 UNK        -0.4718 
     45 CA         25.2734    3.2103   -7.9970 C.3       7 UNK         0.0273 
     46 CB         23.8576    2.7919   -8.4243 C.3       7 UNK        -0.1935 
     47 C          26.2288    3.2036   -9.2010 C.2       7 UNK         0.5018 
     48 O          26.5005    4.2661   -9.7617 O.2       7 UNK        -0.5186 
     49 N          26.7330    2.0164   -9.5646 N.am      8 UNK        -0.4240 
     50 CA         27.7282    1.8362  -10.6237 C.3       8 UNK         0.0235 
     51 CB         27.7502    0.3569  -11.0421 C.3       8 UNK        -0.2000 
     52 C          29.1427    2.2892  -10.2191 C.2       8 UNK         0.4941 
     53 O          29.9432    2.5912  -11.1049 O.2       8 UNK        -0.5273 
     54 N          29.4312    2.2864   -8.9075 N.am      9 UNK        -0.4262 
     55 CA         30.7494    2.4350   -8.2769 C.3       9 UNK         0.0264 
     56 CB         31.3172    3.8540   -8.4878 C.3       9 UNK        -0.1955 
     57 C          31.7093    1.3169   -8.7280 C.2       9 UNK         0.5031 
     58 O          32.8668    1.5806   -9.0634 O.2       9 UNK        -0.5390 
     59 N          31.1919    0.0811   -8.7666 N.am      10 UNK        -0.4204 
     60 CA         31.8437   -1.0936   -9.3515 C.3       10 UNK         0.0237 
     61 CB         30.7629   -2.0808   -9.8297 C.3       10 UNK        -0.1985 
     62 C          32.8826   -1.7321   -8.4097 C.2       10 UNK         0.4970 
     63 O          32.8040   -2.9253   -8.1137 O.2       10 UNK        -0.4914 
     64 N          33.8489   -0.9219   -7.9659 N.am      11 UNK        -0.4285 
     65 CA         34.9620   -1.3287   -7.0945 C.3       11 UNK         0.1007 
     66 C          36.0767   -2.1503   -7.8052 C.2       11 UNK         0.5703 
     67 N          36.0977   -2.2443   -9.1299 N.am      11 UNK        -0.7361 
     68 O          36.9362   -2.7216   -7.1382 O.2       11 UNK        -0.4986 
     69 C69        35.5659   -0.1223   -6.3281 C.3       12 UNK        -0.0947 
     70 S70        34.3272    0.8170   -5.3752 S.3       12 UNK        -0.2240 
     71 C71        34.1357   -0.2347   -3.9030 C.3       12 UNK         0.0194 
     72 H72        30.0712   -5.5118   -1.8483 H         1 UNK         0.0906 
     73 H73        30.9007   -5.2137   -0.3190 H         1 UNK         0.0906 
     74 H74        30.9039   -3.9775   -1.5745 H         1 UNK         0.0906 
     75 H75        29.3886   -2.3586   -1.3054 H         1 UNK         0.3140 
     76 H76        27.5889   -2.2509    0.8161 H         1 UNK         0.1085 
     77 H77        26.8500   -0.1144   -0.1127 H         1 UNK         0.0836 
     78 H78        27.3899   -0.5406   -1.7071 H         1 UNK         0.0836 
     79 H79        28.7318    1.1383   -2.4652 H         1 UNK         0.0731 
     80 H80        30.1544    1.8146   -1.7418 H         1 UNK         0.0731 
     81 H81        32.2689    1.1412   -2.4960 H         1 UNK         0.1312 
     82 H82        32.7775   -2.4257   -4.8132 H         1 UNK         0.1406 
     83 H83        28.9207   -1.4437   -3.2217 H         1 UNK         0.1631 
     84 H84        29.4832   -3.8035   -3.9467 H         1 UNK         0.0717 
     85 H85        31.0581   -4.1479   -4.5955 H         1 UNK         0.0717 
     86 H86        27.3581   -3.8653   -6.1898 H         1 UNK         0.0934 
     87 H87        27.6892   -2.6649   -4.9727 H         1 UNK         0.0934 
     88 H88        27.6936   -2.0137   -7.9652 H         1 UNK         0.0739 
     89 H89        25.3839   -2.4820   -6.3465 H         1 UNK         0.3093 
     90 H90        23.0739   -0.6386   -8.2946 H         1 UNK         0.0818 
     91 H91        23.4106   -2.7492   -9.5876 H         1 UNK         0.0819 
     92 H92        23.5408   -3.6656   -8.0930 H         1 UNK         0.0819 
     93 H93        22.0235   -2.8736   -8.5197 H         1 UNK         0.0819 
     94 H94        22.7744   -2.4127   -6.0627 H         1 UNK         0.3041 
     95 H95        23.1903    0.0895   -3.5331 H         1 UNK         0.0784 
     96 H96        20.8388    0.2469   -4.3819 H         1 UNK         0.0793 
     97 H97        20.7567   -1.5054   -4.5002 H         1 UNK         0.0793 
     98 H98        20.9425   -0.7287   -2.9274 H         1 UNK         0.0793 
     99 H99        22.6030   -2.5976   -3.1363 H         1 UNK         0.3024 
    100 H100       24.1244   -3.8356   -2.0038 H         1 UNK         0.1171 
    101 H101       24.2596   -4.9355   -4.2519 H         1 UNK         0.0786 
    102 H102       25.9718   -4.5496   -4.3564 H         1 UNK         0.0786 
    103 H103       25.3911   -5.6670   -3.1268 H         1 UNK         0.0786 
    104 H104       27.0367   -3.4739   -2.4088 H         1 UNK         0.2977 
    105 H105       26.3246   -0.4097   -5.0767 H         1 UNK         0.3127 
    106 H106       28.2222    1.6683   -4.8049 H         1 UNK         0.0770 
    107 H107       25.2283    1.7361   -4.1128 H         1 UNK         0.0814 
    108 H108       26.4877    2.7440   -3.4183 H         1 UNK         0.0814 
    109 H109       26.4579    1.0183   -3.0903 H         1 UNK         0.0814 
    110 H110       25.1221    1.5849   -6.6360 H         1 UNK         0.2983 
    111 H111       25.2264    4.2349   -7.6219 H         1 UNK         0.0947 
    112 H112       23.8312    1.7609   -8.7784 H         1 UNK         0.0806 
    113 H113       23.4893    3.4255   -9.2323 H         1 UNK         0.0806 
    114 H114       23.1527    2.8786   -7.5973 H         1 UNK         0.0806 
    115 H115       26.4022    1.1756   -9.0968 H         1 UNK         0.3000 
    116 H116       27.4256    2.4321  -11.4876 H         1 UNK         0.0850 
    117 H117       28.4749    0.1837  -11.8388 H         1 UNK         0.0810 
    118 H118       26.7766    0.0356  -11.4127 H         1 UNK         0.0810 
    119 H119       28.0184   -0.2915  -10.2068 H         1 UNK         0.0810 
    120 H120       28.7038    1.9666   -8.2780 H         1 UNK         0.3040 
    121 H121       30.5943    2.2947   -7.2059 H         1 UNK         0.0766 
    122 H122       31.5506    4.0481   -9.5349 H         1 UNK         0.0812 
    123 H123       32.2379    3.9914   -7.9197 H         1 UNK         0.0812 
    124 H124       30.6119    4.6148   -8.1533 H         1 UNK         0.0812 
    125 H125       30.2633   -0.0511   -8.3754 H         1 UNK         0.3205 
    126 H126       32.3932   -0.7722  -10.2390 H         1 UNK         0.0754 
    127 H127       31.2099   -2.9738  -10.2685 H         1 UNK         0.0769 
    128 H128       30.1304   -1.6314  -10.5949 H         1 UNK         0.0769 
    129 H129       30.1194   -2.4039   -9.0129 H         1 UNK         0.0769 
    130 H130       33.8217    0.0524   -8.2507 H         1 UNK         0.2981 
    131 H131       34.5472   -2.0060   -6.3469 H         1 UNK         0.0541 
    132 H132       36.8233   -2.7837   -9.5751 H         1 UNK         0.3459 
    133 H133       35.4006   -1.7776   -9.6868 H         1 UNK         0.3459 
    134 H134       36.0384    0.5681   -7.0290 H         1 UNK         0.0612 
    135 H135       36.3538   -0.4462   -5.6453 H         1 UNK         0.0612 
    136 H136       34.7324   -1.1433   -3.9943 H         1 UNK         0.0624 
    137 H137       34.5249    0.2978   -3.0339 H         1 UNK         0.0624 
@<TRIPOS>BOND
     1    1    2 1    
     2    1   72 1    
     3    1   73 1    
     4    1   74 1    
     5    2    3 2    
     6    2    4 am   BACKBONE|DICT|INTERRES
     7    4    5 1    
     8    4   75 1    
     9    5    6 1    
    10    5   35 1    
    11    5   76 1    
    12    6    7 1    
    13    6   77 1    
    14    6   78 1    
    15    7    8 1    
    16    8    9 1    
    17    8   79 1    
    18    8   80 1    
    19    9   10 ar   
    20    9   14 ar   
    21   10   11 ar   
    22   10   81 1    
    23   11   12 ar   
    24   11   71 1    
    25   12   13 ar   
    26   12   82 1    
    27   13   14 ar   
    28   13   15 1    
    29   14   83 1    
    30   15   16 1    
    31   15   84 1    
    32   15   85 1    
    33   16   17 1    
    34   17   18 1    
    35   17   86 1    
    36   17   87 1    
    37   18   19 1    
    38   18   37 1    
    39   18   88 1    
    40   19   20 am   BACKBONE|DICT|INTERRES
    41   19   89 1    
    42   20   21 2    
    43   20   22 1    
    44   22   23 1    
    45   22   24 1    
    46   22   90 1    
    47   23   91 1    
    48   23   92 1    
    49   23   93 1    
    50   24   25 am   BACKBONE|DICT|INTERRES
    51   24   94 1    
    52   25   26 2    
    53   25   27 1    
    54   27   28 1    
    55   27   29 1    
    56   27   95 1    
    57   28   96 1    
    58   28   97 1    
    59   28   98 1    
    60   29   30 am   BACKBONE|DICT|INTERRES
    61   29   99 1    
    62   30   31 2    
    63   30   32 1    
    64   32   33 1    
    65   32   34 1    
    66   32  100 1    
    67   33  101 1    
    68   33  102 1    
    69   33  103 1    
    70   34   35 am   BACKBONE|DICT|INTERRES
    71   34  104 1    
    72   35   36 2    
    73   37   38 2    
    74   37   39 am   BACKBONE|DICT|INTERRES
    75   39   40 1    
    76   39  105 1    
    77   40   41 1    
    78   40   42 1    
    79   40  106 1    
    80   41  107 1    
    81   41  108 1    
    82   41  109 1    
    83   42   43 2    
    84   42   44 am   BACKBONE|DICT|INTERRES
    85   44   45 1    
    86   44  110 1    
    87   45   46 1    
    88   45   47 1    
    89   45  111 1    
    90   46  112 1    
    91   46  113 1    
    92   46  114 1    
    93   47   48 2    
    94   47   49 am   BACKBONE|DICT|INTERRES
    95   49   50 1    
    96   49  115 1    
    97   50   51 1    
    98   50   52 1    
    99   50  116 1    
   100   51  117 1    
   101   51  118 1    
   102   51  119 1    
   103   52   53 2    
   104   52   54 am   BACKBONE|DICT|INTERRES
   105   54   55 1    
   106   54  120 1    
   107   55   56 1    
   108   55   57 1    
   109   55  121 1    
   110   56  122 1    
   111   56  123 1    
   112   56  124 1    
   113   57   58 2    
   114   57   59 am   BACKBONE|DICT|INTERRES
   115   59   60 1    
   116   59  125 1    
   117   60   61 1    
   118   60   62 1    
   119   60  126 1    
   120   61  127 1    
   121   61  128 1    
   122   61  129 1    
   123   62   63 2    
   124   62   64 am   BACKBONE|DICT|INTERRES
   125   64   65 1    
   126   64  130 1    
   127   65   66 1    
   128   65   69 1    
   129   65  131 1    
   130   66   67 am   BACKBONE|DICT|INTERRES
   131   66   68 2    
   132   67  132 1    
   133   67  133 1    
   134   69   70 1    
   135   69  134 1    
   136   69  135 1    
   137   70   71 1    
   138   71  136 1    
   139   71  137 1    
@<TRIPOS>SUBSTRUCTURE
     1 UNK         1 GROUP             0       ****    0 ROOT    
