@<TRIPOS>MOLECULE
3R137
137   139    1
SMALL
USER_CHARGES


@<TRIPOS>ATOM
      1 CA         25.7380   -0.7675    2.9244 C.3       0 UNK        -0.2020 
      2 C          26.5034   -2.0195    2.5015 C.2       0 UNK         0.4855 
      3 O          26.6764   -2.9232    3.3172 O.2       0 UNK        -0.5197 
      4 N          26.9937   -2.1216    1.2582 N.am      1 UNK        -0.4892 
      5 CA         26.8143   -1.1743    0.1491 C.3       1 UNK         0.0835 
      6 C6         27.8173   -1.4427   -0.9998 C.3       12 UNK        -0.0855 
      7 S7         29.5444   -1.2021   -0.4637 S.3       12 UNK        -0.2931 
      8 C8         30.2325   -2.8784   -0.6406 C.3       12 UNK         0.0378 
      9 C9         30.5652   -3.1980   -2.0907 C.ar      12 UNK        -0.0802 
     10 C10        31.7213   -2.6684   -2.6698 C.ar      12 UNK        -0.0944 
     11 C11        32.0461   -2.9520   -3.9991 C.ar      12 UNK        -0.0787 
     12 C12        31.2122   -3.7882   -4.7488 C.ar      12 UNK        -0.0862 
     13 C13        30.0634   -4.3417   -4.1741 C.ar      12 UNK        -0.0733 
     14 C14        29.7395   -4.0349   -2.8479 C.ar      12 UNK        -0.0832 
     15 C15        29.1924   -5.3090   -4.9623 C.3       12 UNK         0.0240 
     16 S16        27.8756   -4.4551   -5.8800 S.3       12 UNK        -0.2522 
     17 C17        28.6540   -4.1815   -7.5128 C.3       12 UNK        -0.0967 
     18 CA         28.3854   -2.7774   -8.1097 C.3       5 UNK         0.0660 
     19 N          26.9588   -2.4393   -8.0920 N.am      5 UNK        -0.4015 
     20 C          26.4058   -1.3397   -8.6179 C.2       4 UNK         0.4946 
     21 O          27.0324   -0.4915   -9.2528 O.2       4 UNK        -0.5353 
     22 CA         24.9111   -1.1075   -8.3456 C.3       4 UNK         0.0277 
     23 CB         24.0700   -1.6460   -9.5132 C.3       4 UNK        -0.1981 
     24 N          24.4127   -1.6701   -7.0827 N.am      4 UNK        -0.4209 
     25 C          24.8912   -1.4041   -5.8588 C.2       3 UNK         0.4942 
     26 O          25.9014   -0.7284   -5.6390 O.2       3 UNK        -0.5208 
     27 CA         24.1288   -2.0191   -4.6838 C.3       3 UNK         0.0250 
     28 CB         24.7183   -3.3863   -4.3009 C.3       3 UNK        -0.1990 
     29 N          24.2321   -1.1150   -3.5438 N.am      3 UNK        -0.4232 
     30 C          23.2467   -0.8317   -2.6844 C.2       2 UNK         0.4993 
     31 O          22.1146   -1.3148   -2.7580 O.2       2 UNK        -0.5286 
     32 CA         23.5968    0.1530   -1.5486 C.3       2 UNK         0.0209 
     33 CB         22.5233    0.1972   -0.4387 C.3       2 UNK        -0.1931 
     34 N          24.9287   -0.0801   -0.9668 N.am      2 UNK        -0.4546 
     35 C          25.3687   -1.2092   -0.3881 C.2       1 UNK         0.5154 
     36 O          24.7003   -2.2404   -0.2808 O.2       1 UNK        -0.5181 
     37 C          29.2845   -1.6974   -7.4685 C.2       5 UNK         0.5014 
     38 O          30.4088   -1.5077   -7.9325 O.2       5 UNK        -0.5248 
     39 N          28.7668   -0.9933   -6.4541 N.am      6 UNK        -0.4434 
     40 CA         29.4246    0.1440   -5.8182 C.3       6 UNK         0.0363 
     41 CB         29.3076    0.0008   -4.2932 C.3       6 UNK        -0.1936 
     42 C          28.7973    1.4676   -6.2768 C.2       6 UNK         0.5081 
     43 O          29.5278    2.4224   -6.5375 O.2       6 UNK        -0.5248 
     44 N          27.4596    1.5156   -6.3439 N.am      7 UNK        -0.4718 
     45 CA         26.6898    2.7441   -6.5453 C.3       7 UNK         0.0273 
     46 CB         25.2481    2.5174   -6.0602 C.3       7 UNK        -0.1935 
     47 C          26.6894    3.2811   -7.9857 C.2       7 UNK         0.5018 
     48 O          26.5608    4.4947   -8.1551 O.2       7 UNK        -0.5186 
     49 N          26.7950    2.3962   -8.9865 N.am      8 UNK        -0.4240 
     50 CA         26.6844    2.7485  -10.4054 C.3       8 UNK         0.0235 
     51 CB         25.4446    2.0676  -11.0122 C.3       8 UNK        -0.2000 
     52 C          27.9509    2.3746  -11.1827 C.2       8 UNK         0.4941 
     53 O          28.4886    3.2211  -11.8975 O.2       8 UNK        -0.5273 
     54 N          28.4034    1.1212  -11.0428 N.am      9 UNK        -0.4262 
     55 CA         29.5712    0.5832  -11.7468 C.3       9 UNK         0.0264 
     56 CB         29.5385   -0.9516  -11.6828 C.3       9 UNK        -0.1955 
     57 C          30.9075    1.1137  -11.1999 C.2       9 UNK         0.5031 
     58 O          31.8563    1.2430  -11.9753 O.2       9 UNK        -0.5390 
     59 N          30.9339    1.4115   -9.8917 N.am      10 UNK        -0.4204 
     60 CA         32.0647    1.8411   -9.0606 C.3       10 UNK         0.0237 
     61 CB         32.7411    3.1101   -9.6187 C.3       10 UNK        -0.1985 
     62 C          33.0889    0.7210   -8.8024 C.2       10 UNK         0.4970 
     63 O          33.2984   -0.1591   -9.6396 O.2       10 UNK        -0.4914 
     64 N          33.7264    0.7935   -7.6296 N.am      11 UNK        -0.4285 
     65 CA         34.7215   -0.1825   -7.1567 C.3       11 UNK         0.1007 
     66 C          36.1379   -0.0200   -7.7823 C.2       11 UNK         0.5703 
     67 N          36.4170    1.0322   -8.5432 N.am      11 UNK        -0.7361 
     68 O          36.9994   -0.8725   -7.5798 O.2       11 UNK        -0.4986 
     69 C69        34.7911   -0.2144   -5.6077 C.3       12 UNK        -0.0947 
     70 S70        33.1741   -0.5753   -4.8453 S.3       12 UNK        -0.2240 
     71 C71        33.3123   -2.3720   -4.6089 C.3       12 UNK         0.0194 
     72 H72        26.3032    0.1378    2.7066 H         1 UNK         0.0906 
     73 H73        24.7721   -0.7135    2.4233 H         1 UNK         0.0906 
     74 H74        25.5507   -0.7827    3.9980 H         1 UNK         0.0906 
     75 H75        27.4849   -2.9681    1.0134 H         1 UNK         0.3140 
     76 H76        27.0062   -0.1683    0.5272 H         1 UNK         0.1085 
     77 H77        27.6813   -2.4459   -1.4074 H         1 UNK         0.0836 
     78 H78        27.6422   -0.7569   -1.8296 H         1 UNK         0.0836 
     79 H79        29.5403   -3.6118   -0.2245 H         1 UNK         0.0731 
     80 H80        31.1415   -2.9476   -0.0411 H         1 UNK         0.0731 
     81 H81        32.3650   -2.0229   -2.0877 H         1 UNK         0.1312 
     82 H82        31.4657   -4.0199   -5.7738 H         1 UNK         0.1406 
     83 H83        28.8509   -4.4611   -2.4025 H         1 UNK         0.1631 
     84 H84        28.7263   -6.0202   -4.2787 H         1 UNK         0.0717 
     85 H85        29.8006   -5.9086   -5.6411 H         1 UNK         0.0717 
     86 H86        29.7267   -4.3765   -7.4621 H         1 UNK         0.0934 
     87 H87        28.2580   -4.9399   -8.1900 H         1 UNK         0.0934 
     88 H88        28.6708   -2.8203   -9.1621 H         1 UNK         0.0739 
     89 H89        26.3697   -3.0674   -7.5651 H         1 UNK         0.3093 
     90 H90        24.7644   -0.0271   -8.2963 H         1 UNK         0.0818 
     91 H91        23.0202   -1.3721   -9.4066 H         1 UNK         0.0819 
     92 H92        24.4119   -1.2375  -10.4653 H         1 UNK         0.0819 
     93 H93        24.1288   -2.7327   -9.5867 H         1 UNK         0.0819 
     94 H94        23.5917   -2.2546   -7.1548 H         1 UNK         0.3041 
     95 H95        23.0831   -2.1418   -4.9744 H         1 UNK         0.0784 
     96 H96        24.6813   -4.0831   -5.1392 H         1 UNK         0.0793 
     97 H97        25.7602   -3.3009   -3.9892 H         1 UNK         0.0793 
     98 H98        24.1632   -3.8376   -3.4783 H         1 UNK         0.0793 
     99 H99        25.1173   -0.6322   -3.4677 H         1 UNK         0.3024 
    100 H100       23.6267    1.1408   -2.0121 H         1 UNK         0.1171 
    101 H101       22.7812    0.9207    0.3347 H         1 UNK         0.0786 
    102 H102       21.5536    0.4902   -0.8430 H         1 UNK         0.0786 
    103 H103       22.3950   -0.7742    0.0402 H         1 UNK         0.0786 
    104 H104       25.5613    0.7073   -1.0180 H         1 UNK         0.2977 
    105 H105       27.8201   -1.1964   -6.1514 H         1 UNK         0.3127 
    106 H106       30.4856    0.1661   -6.0754 H         1 UNK         0.0770 
    107 H107       29.8258    0.8131   -3.7823 H         1 UNK         0.0814 
    108 H108       28.2677    0.0150   -3.9669 H         1 UNK         0.0814 
    109 H109       29.7526   -0.9328   -3.9500 H         1 UNK         0.0814 
    110 H110       26.9240    0.6847   -6.1005 H         1 UNK         0.2983 
    111 H111       27.1327    3.5206   -5.9170 H         1 UNK         0.0947 
    112 H112       25.2244    2.2112   -5.0143 H         1 UNK         0.0806 
    113 H113       24.7401    1.7503   -6.6444 H         1 UNK         0.0806 
    114 H114       24.6595    3.4322   -6.1427 H         1 UNK         0.0806 
    115 H115       26.9279    1.4135   -8.7709 H         1 UNK         0.3000 
    116 H116       26.5526    3.8263  -10.5232 H         1 UNK         0.0850 
    117 H117       25.3337    2.3284  -12.0656 H         1 UNK         0.0810 
    118 H118       24.5334    2.3821  -10.5033 H         1 UNK         0.0810 
    119 H119       25.5023    0.9810  -10.9509 H         1 UNK         0.0810 
    120 H120       27.8922    0.4771  -10.4384 H         1 UNK         0.3040 
    121 H121       29.5005    0.8796  -12.7958 H         1 UNK         0.0766 
    122 H122       29.6500   -1.3090  -10.6597 H         1 UNK         0.0812 
    123 H123       30.3528   -1.3823  -12.2670 H         1 UNK         0.0812 
    124 H124       28.6048   -1.3497  -12.0805 H         1 UNK         0.0812 
    125 H125       30.0829    1.2297   -9.3796 H         1 UNK         0.3205 
    126 H126       31.6246    2.1019   -8.0978 H         1 UNK         0.0754 
    127 H127       33.4610    3.5140   -8.9061 H         1 UNK         0.0769 
    128 H128       32.0098    3.8936   -9.8180 H         1 UNK         0.0769 
    129 H129       33.2823    2.9122  -10.5443 H         1 UNK         0.0769 
    130 H130       33.5138    1.5473   -6.9933 H         1 UNK         0.2981 
    131 H131       34.3821   -1.1700   -7.4760 H         1 UNK         0.0541 
    132 H132       35.7168    1.7328   -8.7235 H         1 UNK         0.3459 
    133 H133       37.3371    1.1206   -8.9448 H         1 UNK         0.3459 
    134 H134       35.1384    0.7467   -5.2246 H         1 UNK         0.0612 
    135 H135       35.5152   -0.9557   -5.2644 H         1 UNK         0.0612 
    136 H136       34.1591   -2.5881   -3.9559 H         1 UNK         0.0624 
    137 H137       33.5286   -2.8422   -5.5695 H         1 UNK         0.0624 
@<TRIPOS>BOND
     1    1    2 1    
     2    1   72 1    
     3    1   73 1    
     4    1   74 1    
     5    2    3 2    
     6    2    4 am   BACKBONE|DICT|INTERRES
     7    4    5 1    
     8    4   75 1    
     9    5    6 1    
    10    5   35 1    
    11    5   76 1    
    12    6    7 1    
    13    6   77 1    
    14    6   78 1    
    15    7    8 1    
    16    8    9 1    
    17    8   79 1    
    18    8   80 1    
    19    9   10 ar   
    20    9   14 ar   
    21   10   11 ar   
    22   10   81 1    
    23   11   12 ar   
    24   11   71 1    
    25   12   13 ar   
    26   12   82 1    
    27   13   14 ar   
    28   13   15 1    
    29   14   83 1    
    30   15   16 1    
    31   15   84 1    
    32   15   85 1    
    33   16   17 1    
    34   17   18 1    
    35   17   86 1    
    36   17   87 1    
    37   18   19 1    
    38   18   37 1    
    39   18   88 1    
    40   19   20 am   BACKBONE|DICT|INTERRES
    41   19   89 1    
    42   20   21 2    
    43   20   22 1    
    44   22   23 1    
    45   22   24 1    
    46   22   90 1    
    47   23   91 1    
    48   23   92 1    
    49   23   93 1    
    50   24   25 am   BACKBONE|DICT|INTERRES
    51   24   94 1    
    52   25   26 2    
    53   25   27 1    
    54   27   28 1    
    55   27   29 1    
    56   27   95 1    
    57   28   96 1    
    58   28   97 1    
    59   28   98 1    
    60   29   30 am   BACKBONE|DICT|INTERRES
    61   29   99 1    
    62   30   31 2    
    63   30   32 1    
    64   32   33 1    
    65   32   34 1    
    66   32  100 1    
    67   33  101 1    
    68   33  102 1    
    69   33  103 1    
    70   34   35 am   BACKBONE|DICT|INTERRES
    71   34  104 1    
    72   35   36 2    
    73   37   38 2    
    74   37   39 am   BACKBONE|DICT|INTERRES
    75   39   40 1    
    76   39  105 1    
    77   40   41 1    
    78   40   42 1    
    79   40  106 1    
    80   41  107 1    
    81   41  108 1    
    82   41  109 1    
    83   42   43 2    
    84   42   44 am   BACKBONE|DICT|INTERRES
    85   44   45 1    
    86   44  110 1    
    87   45   46 1    
    88   45   47 1    
    89   45  111 1    
    90   46  112 1    
    91   46  113 1    
    92   46  114 1    
    93   47   48 2    
    94   47   49 am   BACKBONE|DICT|INTERRES
    95   49   50 1    
    96   49  115 1    
    97   50   51 1    
    98   50   52 1    
    99   50  116 1    
   100   51  117 1    
   101   51  118 1    
   102   51  119 1    
   103   52   53 2    
   104   52   54 am   BACKBONE|DICT|INTERRES
   105   54   55 1    
   106   54  120 1    
   107   55   56 1    
   108   55   57 1    
   109   55  121 1    
   110   56  122 1    
   111   56  123 1    
   112   56  124 1    
   113   57   58 2    
   114   57   59 am   BACKBONE|DICT|INTERRES
   115   59   60 1    
   116   59  125 1    
   117   60   61 1    
   118   60   62 1    
   119   60  126 1    
   120   61  127 1    
   121   61  128 1    
   122   61  129 1    
   123   62   63 2    
   124   62   64 am   BACKBONE|DICT|INTERRES
   125   64   65 1    
   126   64  130 1    
   127   65   66 1    
   128   65   69 1    
   129   65  131 1    
   130   66   67 am   BACKBONE|DICT|INTERRES
   131   66   68 2    
   132   67  132 1    
   133   67  133 1    
   134   69   70 1    
   135   69  134 1    
   136   69  135 1    
   137   70   71 1    
   138   71  136 1    
   139   71  137 1    
@<TRIPOS>SUBSTRUCTURE
     1 UNK         1 GROUP             0       ****    0 ROOT    
