@<TRIPOS>MOLECULE
3R137
137   139    1
SMALL
USER_CHARGES


@<TRIPOS>ATOM
      1 CA         25.7087   -2.5535    2.0646 C.3       0 UNK        -0.2020 
      2 C          25.9439   -2.3029    0.5831 C.2       0 UNK         0.4855 
      3 O          25.0404   -2.5203   -0.2233 O.2       0 UNK        -0.5197 
      4 N          27.1427   -1.8208    0.2214 N.am      1 UNK        -0.4892 
      5 CA         27.6169   -1.5827   -1.1565 C.3       1 UNK         0.0835 
      6 C6         27.8146   -2.8914   -1.9673 C.3       12 UNK        -0.0855 
      7 S7         28.8807   -4.1051   -1.1140 S.3       12 UNK        -0.2931 
      8 C8         30.5337   -3.6699   -1.7595 C.3       12 UNK         0.0378 
      9 C9         30.7167   -3.8361   -3.2687 C.ar      12 UNK        -0.0802 
     10 C10        31.7425   -3.1289   -3.9002 C.ar      12 UNK        -0.0944 
     11 C11        31.9544   -3.2413   -5.2779 C.ar      12 UNK        -0.0787 
     12 C12        31.1225   -4.0774   -6.0328 C.ar      12 UNK        -0.0862 
     13 C13        30.1031   -4.8093   -5.4126 C.ar      12 UNK        -0.0733 
     14 C14        29.9133   -4.6897   -4.0340 C.ar      12 UNK        -0.0832 
     15 C15        29.2342   -5.7777   -6.2065 C.3       12 UNK         0.0240 
     16 S16        28.0650   -4.9575   -7.3364 S.3       12 UNK        -0.2522 
     17 C17        27.0282   -3.9300   -6.2320 C.3       12 UNK        -0.0967 
     18 CA         26.7638   -2.5408   -6.8651 C.3       5 UNK         0.0660 
     19 N          25.5247   -1.9120   -6.3936 N.am      5 UNK        -0.4015 
     20 C          25.0027   -0.7833   -6.8935 C.2       4 UNK         0.4946 
     21 O          25.6108   -0.0277   -7.6510 O.2       4 UNK        -0.5353 
     22 CA         23.5454   -0.4384   -6.5439 C.3       4 UNK         0.0277 
     23 CB         22.5721   -1.2011   -7.4630 C.3       4 UNK        -0.1981 
     24 N          23.1731   -0.5873   -5.1340 N.am      4 UNK        -0.4209 
     25 C          23.1105   -1.6830   -4.3676 C.2       3 UNK         0.4942 
     26 O          23.4257   -2.8112   -4.7524 O.2       3 UNK        -0.5208 
     27 CA         22.6477   -1.4498   -2.9141 C.3       3 UNK         0.0250 
     28 CB         22.3901   -2.7676   -2.1613 C.3       3 UNK        -0.1990 
     29 N          23.6241   -0.6494   -2.1692 N.am      3 UNK        -0.4232 
     30 C          23.8576    0.6604   -2.3578 C.2       2 UNK         0.4993 
     31 O          23.1563    1.3707   -3.0809 O.2       2 UNK        -0.5286 
     32 CA         25.0868    1.2918   -1.6759 C.3       2 UNK         0.0209 
     33 CB         24.6510    2.1948   -0.5103 C.3       2 UNK        -0.1931 
     34 N          26.0696    0.3233   -1.1858 N.am      2 UNK        -0.4546 
     35 C          26.7571   -0.5551   -1.9313 C.2       1 UNK         0.5154 
     36 O          26.7037   -0.5913   -3.1640 O.2       1 UNK        -0.5181 
     37 C          28.0075   -1.6334   -6.8158 C.2       5 UNK         0.5014 
     38 O          28.7223   -1.5655   -7.8168 O.2       5 UNK        -0.5248 
     39 N          28.2356   -0.9215   -5.7007 N.am      6 UNK        -0.4434 
     40 CA         29.4110   -0.0536   -5.5655 C.3       6 UNK         0.0363 
     41 CB         29.6170    0.3624   -4.1023 C.3       6 UNK        -0.1936 
     42 C          29.3709    1.1771   -6.4868 C.2       6 UNK         0.5081 
     43 O          30.4232    1.6254   -6.9446 O.2       6 UNK        -0.5248 
     44 N          28.1604    1.6796   -6.7662 N.am      7 UNK        -0.4718 
     45 CA         27.9169    2.7667   -7.7134 C.3       7 UNK         0.0273 
     46 CB         26.5404    3.3945   -7.4409 C.3       7 UNK        -0.1935 
     47 C          28.0261    2.2854   -9.1682 C.2       7 UNK         0.5018 
     48 O          28.6348    2.9772   -9.9835 O.2       7 UNK        -0.5186 
     49 N          27.4646    1.1026   -9.4596 N.am      8 UNK        -0.4240 
     50 CA         27.5081    0.4485  -10.7703 C.3       8 UNK         0.0235 
     51 CB         26.5733   -0.7718  -10.7716 C.3       8 UNK        -0.2000 
     52 C          28.9311    0.0463  -11.1897 C.2       8 UNK         0.4941 
     53 O          29.3103    0.2793  -12.3381 O.2       8 UNK        -0.5273 
     54 N          29.7010   -0.5207  -10.2499 N.am      9 UNK        -0.4262 
     55 CA         31.1186   -0.8465  -10.4269 C.3       9 UNK         0.0264 
     56 CB         31.5489   -1.8307   -9.3277 C.3       9 UNK        -0.1955 
     57 C          32.0303    0.3938  -10.4111 C.2       9 UNK         0.5031 
     58 O          33.1486    0.3167  -10.9218 O.2       9 UNK        -0.5390 
     59 N          31.5478    1.4937   -9.8117 N.am      10 UNK        -0.4204 
     60 CA         32.2330    2.7710   -9.5823 C.3       10 UNK         0.0237 
     61 CB         32.5066    3.4968  -10.9166 C.3       10 UNK        -0.1985 
     62 C          33.4894    2.6245   -8.7006 C.2       10 UNK         0.4970 
     63 O          34.4738    3.3368   -8.9079 O.2       10 UNK        -0.4914 
     64 N          33.4322    1.6971   -7.7370 N.am      11 UNK        -0.4285 
     65 CA         34.5188    1.3928   -6.7956 C.3       11 UNK         0.1007 
     66 C          34.5512    2.3144   -5.5416 C.2       11 UNK         0.5703 
     67 N          33.5347    3.1327   -5.2922 N.am      11 UNK        -0.7361 
     68 O          35.5263    2.3001   -4.7937 O.2       11 UNK        -0.4986 
     69 C69        34.5492   -0.1160   -6.4324 C.3       12 UNK        -0.0947 
     70 S70        33.0199   -0.6996   -5.6326 S.3       12 UNK        -0.2240 
     71 C71        33.1113   -2.4927   -5.9310 C.3       12 UNK         0.0194 
     72 H72        25.4709   -3.6037    2.2317 H         1 UNK         0.0906 
     73 H73        26.5830   -2.3042    2.6656 H         1 UNK         0.0906 
     74 H74        24.8704   -1.9539    2.4181 H         1 UNK         0.0906 
     75 H75        27.8345   -1.6569    0.9405 H         1 UNK         0.3140 
     76 H76        28.5961   -1.1113   -1.0589 H         1 UNK         0.1085 
     77 H77        26.8509   -3.3672   -2.1586 H         1 UNK         0.0836 
     78 H78        28.2374   -2.6739   -2.9493 H         1 UNK         0.0836 
     79 H79        31.2741   -4.2910   -1.2539 H         1 UNK         0.0731 
     80 H80        30.7497   -2.6390   -1.4745 H         1 UNK         0.0731 
     81 H81        32.3865   -2.4853   -3.3160 H         1 UNK         0.1312 
     82 H82        31.2774   -4.1773   -7.0984 H         1 UNK         0.1406 
     83 H83        29.1355   -5.2710   -3.5594 H         1 UNK         0.1631 
     84 H84        28.6717   -6.4325   -5.5391 H         1 UNK         0.0717 
     85 H85        29.8810   -6.4317   -6.7929 H         1 UNK         0.0717 
     86 H86        26.0880   -4.4643   -6.0858 H         1 UNK         0.0934 
     87 H87        27.4755   -3.8346   -5.2418 H         1 UNK         0.0934 
     88 H88        26.5710   -2.7133   -7.9263 H         1 UNK         0.0739 
     89 H89        24.9330   -2.4521   -5.7661 H         1 UNK         0.3093 
     90 H90        23.4260    0.6249   -6.7591 H         1 UNK         0.0818 
     91 H91        21.5423   -0.8831   -7.3003 H         1 UNK         0.0819 
     92 H92        22.8049   -1.0183   -8.5131 H         1 UNK         0.0819 
     93 H93        22.6189   -2.2789   -7.3043 H         1 UNK         0.0819 
     94 H94        22.9811    0.2878   -4.6510 H         1 UNK         0.3041 
     95 H95        21.7046   -0.9003   -2.9526 H         1 UNK         0.0784 
     96 H96        21.6265   -3.3617   -2.6649 H         1 UNK         0.0793 
     97 H97        23.2906   -3.3800   -2.0993 H         1 UNK         0.0793 
     98 H98        22.0416   -2.5834   -1.1450 H         1 UNK         0.0793 
     99 H99        24.2431   -1.1695   -1.5544 H         1 UNK         0.3024 
    100 H100       25.5812    1.9099   -2.4286 H         1 UNK         0.1171 
    101 H101       25.5009    2.7215   -0.0758 H         1 UNK         0.0786 
    102 H102       23.9417    2.9527   -0.8465 H         1 UNK         0.0786 
    103 H103       24.1662    1.6240    0.2827 H         1 UNK         0.0786 
    104 H104       26.1747    0.2575   -0.1835 H         1 UNK         0.2977 
    105 H105       27.5902   -0.9640   -4.9163 H         1 UNK         0.3127 
    106 H106       30.2711   -0.6504   -5.8663 H         1 UNK         0.0770 
    107 H107       28.8002    0.9874   -3.7407 H         1 UNK         0.0814 
    108 H108       30.5386    0.9356   -3.9923 H         1 UNK         0.0814 
    109 H109       29.7005   -0.5083   -3.4524 H         1 UNK         0.0814 
    110 H110       27.3483    1.2065   -6.3942 H         1 UNK         0.2983 
    111 H111       28.6769    3.5364   -7.5594 H         1 UNK         0.0947 
    112 H112       26.3507    4.2248   -8.1225 H         1 UNK         0.0806 
    113 H113       26.4788    3.7885   -6.4264 H         1 UNK         0.0806 
    114 H114       25.7306    2.6759   -7.5709 H         1 UNK         0.0806 
    115 H115       26.9346    0.6262   -8.7309 H         1 UNK         0.3000 
    116 H116       27.1356    1.1634  -11.5069 H         1 UNK         0.0850 
    117 H117       26.5613   -1.2538  -11.7500 H         1 UNK         0.0810 
    118 H118       25.5477   -0.4860  -10.5369 H         1 UNK         0.0810 
    119 H119       26.8863   -1.5195  -10.0425 H         1 UNK         0.0810 
    120 H120       29.2909   -0.7527   -9.3446 H         1 UNK         0.3040 
    121 H121       31.2424   -1.3369  -11.3947 H         1 UNK         0.0766 
    122 H122       30.9520   -2.7426   -9.3550 H         1 UNK         0.0812 
    123 H123       32.5937   -2.1202   -9.4472 H         1 UNK         0.0812 
    124 H124       31.4405   -1.3924   -8.3346 H         1 UNK         0.0812 
    125 H125       30.6232    1.4305   -9.4070 H         1 UNK         0.3205 
    126 H126       31.5355    3.3857   -9.0112 H         1 UNK         0.0754 
    127 H127       32.8887    4.5037  -10.7439 H         1 UNK         0.0769 
    128 H128       31.5945    3.5943  -11.5058 H         1 UNK         0.0769 
    129 H129       33.2433    2.9683  -11.5224 H         1 UNK         0.0769 
    130 H130       32.5567    1.2147   -7.5766 H         1 UNK         0.2981 
    131 H131       35.4605    1.5925   -7.3103 H         1 UNK         0.0541 
    132 H132       33.5681    3.7314   -4.4826 H         1 UNK         0.3459 
    133 H133       32.7228    3.1299   -5.8894 H         1 UNK         0.3459 
    134 H134       35.3936   -0.3410   -5.7786 H         1 UNK         0.0612 
    135 H135       34.7095   -0.7003   -7.3399 H         1 UNK         0.0612 
    136 H136       33.1363   -2.6771   -7.0052 H         1 UNK         0.0624 
    137 H137       34.0504   -2.8733   -5.5272 H         1 UNK         0.0624 
@<TRIPOS>BOND
     1    1    2 1    
     2    1   72 1    
     3    1   73 1    
     4    1   74 1    
     5    2    3 2    
     6    2    4 am   BACKBONE|DICT|INTERRES
     7    4    5 1    
     8    4   75 1    
     9    5    6 1    
    10    5   35 1    
    11    5   76 1    
    12    6    7 1    
    13    6   77 1    
    14    6   78 1    
    15    7    8 1    
    16    8    9 1    
    17    8   79 1    
    18    8   80 1    
    19    9   10 ar   
    20    9   14 ar   
    21   10   11 ar   
    22   10   81 1    
    23   11   12 ar   
    24   11   71 1    
    25   12   13 ar   
    26   12   82 1    
    27   13   14 ar   
    28   13   15 1    
    29   14   83 1    
    30   15   16 1    
    31   15   84 1    
    32   15   85 1    
    33   16   17 1    
    34   17   18 1    
    35   17   86 1    
    36   17   87 1    
    37   18   19 1    
    38   18   37 1    
    39   18   88 1    
    40   19   20 am   BACKBONE|DICT|INTERRES
    41   19   89 1    
    42   20   21 2    
    43   20   22 1    
    44   22   23 1    
    45   22   24 1    
    46   22   90 1    
    47   23   91 1    
    48   23   92 1    
    49   23   93 1    
    50   24   25 am   BACKBONE|DICT|INTERRES
    51   24   94 1    
    52   25   26 2    
    53   25   27 1    
    54   27   28 1    
    55   27   29 1    
    56   27   95 1    
    57   28   96 1    
    58   28   97 1    
    59   28   98 1    
    60   29   30 am   BACKBONE|DICT|INTERRES
    61   29   99 1    
    62   30   31 2    
    63   30   32 1    
    64   32   33 1    
    65   32   34 1    
    66   32  100 1    
    67   33  101 1    
    68   33  102 1    
    69   33  103 1    
    70   34   35 am   BACKBONE|DICT|INTERRES
    71   34  104 1    
    72   35   36 2    
    73   37   38 2    
    74   37   39 am   BACKBONE|DICT|INTERRES
    75   39   40 1    
    76   39  105 1    
    77   40   41 1    
    78   40   42 1    
    79   40  106 1    
    80   41  107 1    
    81   41  108 1    
    82   41  109 1    
    83   42   43 2    
    84   42   44 am   BACKBONE|DICT|INTERRES
    85   44   45 1    
    86   44  110 1    
    87   45   46 1    
    88   45   47 1    
    89   45  111 1    
    90   46  112 1    
    91   46  113 1    
    92   46  114 1    
    93   47   48 2    
    94   47   49 am   BACKBONE|DICT|INTERRES
    95   49   50 1    
    96   49  115 1    
    97   50   51 1    
    98   50   52 1    
    99   50  116 1    
   100   51  117 1    
   101   51  118 1    
   102   51  119 1    
   103   52   53 2    
   104   52   54 am   BACKBONE|DICT|INTERRES
   105   54   55 1    
   106   54  120 1    
   107   55   56 1    
   108   55   57 1    
   109   55  121 1    
   110   56  122 1    
   111   56  123 1    
   112   56  124 1    
   113   57   58 2    
   114   57   59 am   BACKBONE|DICT|INTERRES
   115   59   60 1    
   116   59  125 1    
   117   60   61 1    
   118   60   62 1    
   119   60  126 1    
   120   61  127 1    
   121   61  128 1    
   122   61  129 1    
   123   62   63 2    
   124   62   64 am   BACKBONE|DICT|INTERRES
   125   64   65 1    
   126   64  130 1    
   127   65   66 1    
   128   65   69 1    
   129   65  131 1    
   130   66   67 am   BACKBONE|DICT|INTERRES
   131   66   68 2    
   132   67  132 1    
   133   67  133 1    
   134   69   70 1    
   135   69  134 1    
   136   69  135 1    
   137   70   71 1    
   138   71  136 1    
   139   71  137 1    
@<TRIPOS>SUBSTRUCTURE
     1 UNK         1 GROUP             0       ****    0 ROOT    
