@<TRIPOS>MOLECULE
3R137
137   139    1
SMALL
USER_CHARGES


@<TRIPOS>ATOM
      1 CA         26.7994   -7.0803   -4.2668 C.3       0 UNK        -0.2020 
      2 C          26.7144   -6.2151   -3.0188 C.2       0 UNK         0.4855 
      3 O          25.6128   -5.9010   -2.5659 O.2       0 UNK        -0.5197 
      4 N          27.8679   -5.8227   -2.4599 N.am      1 UNK        -0.4892 
      5 CA         27.9767   -4.9158   -1.3122 C.3       1 UNK         0.0835 
      6 C6         29.4375   -4.8302   -0.8027 C.3       12 UNK        -0.0855 
      7 S7         29.5812   -3.9376    0.7873 S.3       12 UNK        -0.2931 
      8 C8         31.0731   -2.9109    0.5416 C.3       12 UNK         0.0378 
      9 C9         30.9937   -1.9981   -0.6784 C.ar      12 UNK        -0.0802 
     10 C10        32.0011   -2.0420   -1.6480 C.ar      12 UNK        -0.0944 
     11 C11        31.9309   -1.2267   -2.7802 C.ar      12 UNK        -0.0787 
     12 C12        30.8366   -0.3762   -2.9490 C.ar      12 UNK        -0.0862 
     13 C13        29.8278   -0.3061   -1.9808 C.ar      12 UNK        -0.0733 
     14 C14        29.9220   -1.1133   -0.8420 C.ar      12 UNK        -0.0832 
     15 C15        28.5958    0.5732   -2.1766 C.3       12 UNK         0.0240 
     16 S16        28.9225    2.1262   -3.0757 S.3       12 UNK        -0.2522 
     17 C17        27.3326    2.4041   -3.9243 C.3       12 UNK        -0.0967 
     18 CA         27.3503    1.8166   -5.3580 C.3       5 UNK         0.0660 
     19 N          27.3081    0.3520   -5.3533 N.am      5 UNK        -0.4015 
     20 C          27.6728   -0.4289   -6.3780 C.2       4 UNK         0.4946 
     21 O          28.0637    0.0042   -7.4623 O.2       4 UNK        -0.5353 
     22 CA         27.5620   -1.9472   -6.1743 C.3       4 UNK         0.0277 
     23 CB         28.9062   -2.5119   -5.6877 C.3       4 UNK        -0.1981 
     24 N          26.4919   -2.3313   -5.2476 N.am      4 UNK        -0.4209 
     25 C          25.1840   -2.1573   -5.5026 C.2       3 UNK         0.4942 
     26 O          24.7626   -1.6548   -6.5441 O.2       3 UNK        -0.5208 
     27 CA         24.1666   -2.5780   -4.4259 C.3       3 UNK         0.0250 
     28 CB         23.5834   -3.9614   -4.7539 C.3       3 UNK        -0.1990 
     29 N          24.7064   -2.5890   -3.0652 N.am      3 UNK        -0.4232 
     30 C          25.1462   -1.5062   -2.4072 C.2       2 UNK         0.4993 
     31 O          25.1144   -0.3650   -2.8694 O.2       2 UNK        -0.5286 
     32 CA         25.7821   -1.7380   -1.0234 C.3       2 UNK         0.0209 
     33 CB         24.7267   -1.5782    0.0821 C.3       2 UNK        -0.1931 
     34 N          26.4610   -3.0309   -0.8620 N.am      2 UNK        -0.4546 
     35 C          27.4017   -3.5316   -1.6775 C.2       1 UNK         0.5154 
     36 O          27.7893   -2.9688   -2.7027 O.2       1 UNK        -0.5181 
     37 C          26.2539    2.4456   -6.2410 C.2       5 UNK         0.5014 
     38 O          26.3890    3.6178   -6.5909 O.2       5 UNK        -0.5248 
     39 N          25.2234    1.6794   -6.6360 N.am      6 UNK        -0.4434 
     40 CA         24.1664    2.1261   -7.5517 C.3       6 UNK         0.0363 
     41 CB         23.0563    1.0656   -7.6132 C.3       6 UNK        -0.1936 
     42 C          24.6805    2.4504   -8.9679 C.2       6 UNK         0.5081 
     43 O          24.1027    3.3065   -9.6376 O.2       6 UNK        -0.5248 
     44 N          25.7666    1.7856   -9.3874 N.am      7 UNK        -0.4718 
     45 CA         26.4680    2.0503  -10.6475 C.3       7 UNK         0.0273 
     46 CB         27.1445    0.7495  -11.1107 C.3       7 UNK        -0.1935 
     47 C          27.5057    3.1858  -10.5349 C.2       7 UNK         0.5018 
     48 O          28.0215    3.6203  -11.5648 O.2       7 UNK        -0.5186 
     49 N          27.8037    3.6181   -9.2992 N.am      8 UNK        -0.4240 
     50 CA         28.8279    4.5843   -8.8821 C.3       8 UNK         0.0235 
     51 CB         28.3058    6.0152   -9.1282 C.3       8 UNK        -0.2000 
     52 C          30.2288    4.3467   -9.5017 C.2       8 UNK         0.4941 
     53 O          30.7194    5.2170  -10.2214 O.2       8 UNK        -0.5273 
     54 N          30.8965    3.2095   -9.2587 N.am      9 UNK        -0.4262 
     55 CA         30.4957    2.0346   -8.4883 C.3       9 UNK         0.0264 
     56 CB         31.1021    2.0955   -7.0762 C.3       9 UNK        -0.1955 
     57 C          30.9881    0.7981   -9.2473 C.2       9 UNK         0.5031 
     58 O          32.0371    0.8582   -9.8961 O.2       9 UNK        -0.5390 
     59 N          30.2414   -0.3070   -9.1317 N.am      10 UNK        -0.4204 
     60 CA         30.4886   -1.5743   -9.8323 C.3       10 UNK         0.0237 
     61 CB         29.2777   -2.5048   -9.6529 C.3       10 UNK        -0.1985 
     62 C          31.7891   -2.2902   -9.4204 C.2       10 UNK         0.4970 
     63 O          32.2352   -3.1811  -10.1445 O.2       10 UNK        -0.4914 
     64 N          32.3789   -1.8851   -8.2885 N.am      11 UNK        -0.4285 
     65 CA         33.7055   -2.3154   -7.8243 C.3       11 UNK         0.1007 
     66 C          34.8802   -1.8535   -8.7382 C.2       11 UNK         0.5703 
     67 N          34.7052   -0.8503   -9.5934 N.am      11 UNK        -0.7361 
     68 O          35.9690   -2.4186   -8.6680 O.2       11 UNK        -0.4986 
     69 C69        33.9729   -1.8809   -6.3592 C.3       12 UNK        -0.0947 
     70 S70        32.6560   -2.3657   -5.1944 S.3       12 UNK        -0.2240 
     71 C71        33.0405   -1.2434   -3.8181 C.3       12 UNK         0.0194 
     72 H72        26.3335   -6.5689   -5.1088 H         1 UNK         0.0906 
     73 H73        27.8304   -7.3082   -4.5366 H         1 UNK         0.0906 
     74 H74        26.2745   -8.0218   -4.1069 H         1 UNK         0.0906 
     75 H75        28.7413   -6.0868   -2.8930 H         1 UNK         0.3140 
     76 H76        27.3669   -5.3441   -0.5134 H         1 UNK         0.1085 
     77 H77        29.8336   -5.8347   -0.6456 H         1 UNK         0.0836 
     78 H78        30.0770   -4.3737   -1.5601 H         1 UNK         0.0836 
     79 H79        31.9381   -3.5725    0.4734 H         1 UNK         0.0731 
     80 H80        31.2272   -2.2969    1.4299 H         1 UNK         0.0731 
     81 H81        32.8413   -2.7118   -1.5252 H         1 UNK         0.1312 
     82 H82        30.7746    0.2267   -3.8440 H         1 UNK         0.1406 
     83 H83        29.1409   -1.0840   -0.0946 H         1 UNK         0.1631 
     84 H84        28.1498    0.8281   -1.2143 H         1 UNK         0.0717 
     85 H85        27.8602   -0.0194   -2.7172 H         1 UNK         0.0717 
     86 H86        26.5068    1.9998   -3.3356 H         1 UNK         0.0934 
     87 H87        27.1805    3.4854   -3.9500 H         1 UNK         0.0934 
     88 H88        28.2938    2.1104   -5.8235 H         1 UNK         0.0739 
     89 H89        26.9522   -0.0862   -4.5151 H         1 UNK         0.3093 
     90 H90        27.3323   -2.3908   -7.1449 H         1 UNK         0.0818 
     91 H91        29.1959   -2.0948   -4.7226 H         1 UNK         0.0819 
     92 H92        28.8701   -3.5963   -5.5841 H         1 UNK         0.0819 
     93 H93        29.7099   -2.2784   -6.3863 H         1 UNK         0.0819 
     94 H94        26.7849   -2.7064   -4.3484 H         1 UNK         0.3041 
     95 H95        23.3525   -1.8505   -4.4500 H         1 UNK         0.0784 
     96 H96        23.1235   -3.9661   -5.7433 H         1 UNK         0.0793 
     97 H97        24.3519   -4.7349   -4.7490 H         1 UNK         0.0793 
     98 H98        22.8128   -4.2490   -4.0384 H         1 UNK         0.0793 
     99 H99        24.8065   -3.4936   -2.6227 H         1 UNK         0.3024 
    100 H100       26.5347   -0.9623   -0.8828 H         1 UNK         0.1171 
    101 H101       24.2200   -0.6151    0.0024 H         1 UNK         0.0786 
    102 H102       25.1787   -1.6215    1.0733 H         1 UNK         0.0786 
    103 H103       23.9622   -2.3542    0.0260 H         1 UNK         0.0786 
    104 H104       26.1962   -3.5716   -0.0509 H         1 UNK         0.2977 
    105 H105       25.1839    0.7139   -6.3363 H         1 UNK         0.3127 
    106 H106       23.7388    3.0433   -7.1410 H         1 UNK         0.0770 
    107 H107       23.4145    0.1313   -8.0471 H         1 UNK         0.0814 
    108 H108       22.2235    1.4100   -8.2279 H         1 UNK         0.0814 
    109 H109       22.6583    0.8453   -6.6225 H         1 UNK         0.0814 
    110 H110       26.1756    1.0907   -8.7759 H         1 UNK         0.2983 
    111 H111       25.7437    2.3476  -11.4094 H         1 UNK         0.0947 
    112 H112       27.6698    0.8931  -12.0560 H         1 UNK         0.0806 
    113 H113       26.4141   -0.0448  -11.2649 H         1 UNK         0.0806 
    114 H114       27.8736    0.3968  -10.3828 H         1 UNK         0.0806 
    115 H115       27.2583    3.2344   -8.5378 H         1 UNK         0.3000 
    116 H116       28.9464    4.4634   -7.8043 H         1 UNK         0.0850 
    117 H117       29.0163    6.7605   -8.7682 H         1 UNK         0.0810 
    118 H118       27.3650    6.1867   -8.6049 H         1 UNK         0.0810 
    119 H119       28.1387    6.2063  -10.1889 H         1 UNK         0.0810 
    120 H120       31.7730    3.0656   -9.7445 H         1 UNK         0.3040 
    121 H121       29.4161    1.9647   -8.3998 H         1 UNK         0.0766 
    122 H122       30.7635    2.9793   -6.5354 H         1 UNK         0.0812 
    123 H123       32.1923    2.1192   -7.1054 H         1 UNK         0.0812 
    124 H124       30.8083    1.2258   -6.4866 H         1 UNK         0.0812 
    125 H125       29.4045   -0.2608   -8.5468 H         1 UNK         0.3205 
    126 H126       30.5787   -1.3411  -10.8953 H         1 UNK         0.0754 
    127 H127       29.3786   -3.3958  -10.2740 H         1 UNK         0.0769 
    128 H128       28.3468   -2.0160   -9.9403 H         1 UNK         0.0769 
    129 H129       29.1778   -2.8425   -8.6227 H         1 UNK         0.0769 
    130 H130       31.9375   -1.1575   -7.7494 H         1 UNK         0.2981 
    131 H131       33.7097   -3.4067   -7.8488 H         1 UNK         0.0541 
    132 H132       33.8157   -0.3708   -9.6598 H         1 UNK         0.3459 
    133 H133       35.4735   -0.5643  -10.1789 H         1 UNK         0.3459 
    134 H134       34.9098   -2.3101   -5.9991 H         1 UNK         0.0612 
    135 H135       34.0941   -0.7968   -6.3133 H         1 UNK         0.0612 
    136 H136       33.9854   -1.5443   -3.3628 H         1 UNK         0.0624 
    137 H137       33.1904   -0.2324   -4.2002 H         1 UNK         0.0624 
@<TRIPOS>BOND
     1    1    2 1    
     2    1   72 1    
     3    1   73 1    
     4    1   74 1    
     5    2    3 2    
     6    2    4 am   BACKBONE|DICT|INTERRES
     7    4    5 1    
     8    4   75 1    
     9    5    6 1    
    10    5   35 1    
    11    5   76 1    
    12    6    7 1    
    13    6   77 1    
    14    6   78 1    
    15    7    8 1    
    16    8    9 1    
    17    8   79 1    
    18    8   80 1    
    19    9   10 ar   
    20    9   14 ar   
    21   10   11 ar   
    22   10   81 1    
    23   11   12 ar   
    24   11   71 1    
    25   12   13 ar   
    26   12   82 1    
    27   13   14 ar   
    28   13   15 1    
    29   14   83 1    
    30   15   16 1    
    31   15   84 1    
    32   15   85 1    
    33   16   17 1    
    34   17   18 1    
    35   17   86 1    
    36   17   87 1    
    37   18   19 1    
    38   18   37 1    
    39   18   88 1    
    40   19   20 am   BACKBONE|DICT|INTERRES
    41   19   89 1    
    42   20   21 2    
    43   20   22 1    
    44   22   23 1    
    45   22   24 1    
    46   22   90 1    
    47   23   91 1    
    48   23   92 1    
    49   23   93 1    
    50   24   25 am   BACKBONE|DICT|INTERRES
    51   24   94 1    
    52   25   26 2    
    53   25   27 1    
    54   27   28 1    
    55   27   29 1    
    56   27   95 1    
    57   28   96 1    
    58   28   97 1    
    59   28   98 1    
    60   29   30 am   BACKBONE|DICT|INTERRES
    61   29   99 1    
    62   30   31 2    
    63   30   32 1    
    64   32   33 1    
    65   32   34 1    
    66   32  100 1    
    67   33  101 1    
    68   33  102 1    
    69   33  103 1    
    70   34   35 am   BACKBONE|DICT|INTERRES
    71   34  104 1    
    72   35   36 2    
    73   37   38 2    
    74   37   39 am   BACKBONE|DICT|INTERRES
    75   39   40 1    
    76   39  105 1    
    77   40   41 1    
    78   40   42 1    
    79   40  106 1    
    80   41  107 1    
    81   41  108 1    
    82   41  109 1    
    83   42   43 2    
    84   42   44 am   BACKBONE|DICT|INTERRES
    85   44   45 1    
    86   44  110 1    
    87   45   46 1    
    88   45   47 1    
    89   45  111 1    
    90   46  112 1    
    91   46  113 1    
    92   46  114 1    
    93   47   48 2    
    94   47   49 am   BACKBONE|DICT|INTERRES
    95   49   50 1    
    96   49  115 1    
    97   50   51 1    
    98   50   52 1    
    99   50  116 1    
   100   51  117 1    
   101   51  118 1    
   102   51  119 1    
   103   52   53 2    
   104   52   54 am   BACKBONE|DICT|INTERRES
   105   54   55 1    
   106   54  120 1    
   107   55   56 1    
   108   55   57 1    
   109   55  121 1    
   110   56  122 1    
   111   56  123 1    
   112   56  124 1    
   113   57   58 2    
   114   57   59 am   BACKBONE|DICT|INTERRES
   115   59   60 1    
   116   59  125 1    
   117   60   61 1    
   118   60   62 1    
   119   60  126 1    
   120   61  127 1    
   121   61  128 1    
   122   61  129 1    
   123   62   63 2    
   124   62   64 am   BACKBONE|DICT|INTERRES
   125   64   65 1    
   126   64  130 1    
   127   65   66 1    
   128   65   69 1    
   129   65  131 1    
   130   66   67 am   BACKBONE|DICT|INTERRES
   131   66   68 2    
   132   67  132 1    
   133   67  133 1    
   134   69   70 1    
   135   69  134 1    
   136   69  135 1    
   137   70   71 1    
   138   71  136 1    
   139   71  137 1    
@<TRIPOS>SUBSTRUCTURE
     1 UNK         1 GROUP             0       ****    0 ROOT    
