@<TRIPOS>MOLECULE
3R137
137   139    1
SMALL
USER_CHARGES


@<TRIPOS>ATOM
      1 CA         23.1108   -4.2081   -1.8751 C.3       0 UNK        -0.2020 
      2 C          24.2850   -3.9703   -0.9374 C.2       0 UNK         0.4855 
      3 O          24.1000   -3.3967    0.1354 O.2       0 UNK        -0.5197 
      4 N          25.4851   -4.4147   -1.3331 N.am      1 UNK        -0.4892 
      5 CA         26.7389   -4.2297   -0.5971 C.3       1 UNK         0.0835 
      6 C6         27.7481   -5.3585   -0.9409 C.3       12 UNK        -0.0855 
      7 S7         29.3372   -5.2469   -0.0429 S.3       12 UNK        -0.2931 
      8 C8         30.5135   -5.9565   -1.2441 C.3       12 UNK         0.0378 
      9 C9         30.7279   -5.0483   -2.4478 C.ar      12 UNK        -0.0802 
     10 C10        31.5880   -3.9497   -2.3587 C.ar      12 UNK        -0.0944 
     11 C11        31.7693   -3.0938   -3.4505 C.ar      12 UNK        -0.0787 
     12 C12        31.0745   -3.3468   -4.6399 C.ar      12 UNK        -0.0862 
     13 C13        30.2191   -4.4476   -4.7430 C.ar      12 UNK        -0.0733 
     14 C14        30.0622   -5.3024   -3.6498 C.ar      12 UNK        -0.0832 
     15 C15        29.4437   -4.7104   -6.0240 C.3       12 UNK         0.0240 
     16 S16        27.8292   -3.8695   -5.9959 S.3       12 UNK        -0.2522 
     17 C17        28.3189   -2.1763   -6.4573 C.3       12 UNK        -0.0967 
     18 CA         27.1424   -1.3578   -7.0347 C.3       5 UNK         0.0660 
     19 N          26.0571   -1.1972   -6.0650 N.am      5 UNK        -0.4015 
     20 C          24.8249   -0.7522   -6.3453 C.2       4 UNK         0.4946 
     21 O          24.4555   -0.4077   -7.4683 O.2       4 UNK        -0.5353 
     22 CA         23.8391   -0.6782   -5.1673 C.3       4 UNK         0.0277 
     23 CB         23.1133   -2.0213   -4.9881 C.3       4 UNK        -0.1981 
     24 N          24.4987   -0.3059   -3.9127 N.am      4 UNK        -0.4209 
     25 C          24.9083    0.9369   -3.6226 C.2       3 UNK         0.4942 
     26 O          24.7085    1.9133   -4.3451 O.2       3 UNK        -0.5208 
     27 CA         25.6979    1.1132   -2.3153 C.3       3 UNK         0.0250 
     28 CB         24.7443    1.2249   -1.1149 C.3       3 UNK        -0.1990 
     29 N          26.6716    0.0453   -2.0670 N.am      3 UNK        -0.4232 
     30 C          27.7160   -0.2515   -2.8496 C.2       2 UNK         0.4993 
     31 O          27.9440    0.3071   -3.9226 O.2       2 UNK        -0.5286 
     32 CA         28.6702   -1.3590   -2.3755 C.3       2 UNK         0.0209 
     33 CB         29.6530   -0.8211   -1.3163 C.3       2 UNK        -0.1931 
     34 N          28.0123   -2.5968   -1.9292 N.am      2 UNK        -0.4546 
     35 C          27.2593   -2.7959   -0.8364 C.2       1 UNK         0.5154 
     36 O          26.9461   -1.8989   -0.0511 O.2       1 UNK        -0.5181 
     37 C          27.6350   -0.0049   -7.5810 C.2       5 UNK         0.5014 
     38 O          27.9223    0.0857   -8.7758 O.2       5 UNK        -0.5248 
     39 N          27.6768    1.0246   -6.7200 N.am      6 UNK        -0.4434 
     40 CA         28.1386    2.3912   -7.0028 C.3       6 UNK         0.0363 
     41 CB         27.9696    3.2430   -5.7333 C.3       6 UNK        -0.1936 
     42 C          27.4591    3.0966   -8.1930 C.2       6 UNK         0.5081 
     43 O          28.0065    4.0733   -8.7051 O.2       6 UNK        -0.5248 
     44 N          26.2911    2.5994   -8.6201 N.am      7 UNK        -0.4718 
     45 CA         25.5769    3.0427   -9.8161 C.3       7 UNK         0.0273 
     46 CB         24.1585    2.4501   -9.7905 C.3       7 UNK        -0.1935 
     47 C          26.2849    2.6844  -11.1389 C.2       7 UNK         0.5018 
     48 O          25.9682    3.3056  -12.1550 O.2       7 UNK        -0.5186 
     49 N          27.1999    1.7019  -11.1265 N.am      8 UNK        -0.4240 
     50 CA         27.9061    1.2284  -12.3221 C.3       8 UNK         0.0235 
     51 CB         27.1367    0.0484  -12.9421 C.3       8 UNK        -0.2000 
     52 C          29.3723    0.8446  -12.0678 C.2       8 UNK         0.4941 
     53 O          30.1988    1.0519  -12.9582 O.2       8 UNK        -0.5273 
     54 N          29.6805    0.2724  -10.8975 N.am      9 UNK        -0.4262 
     55 CA         31.0205   -0.1838  -10.5246 C.3       9 UNK         0.0264 
     56 CB         30.8821   -1.3444   -9.5247 C.3       9 UNK        -0.1955 
     57 C          31.8644    0.9512   -9.9213 C.2       9 UNK         0.5031 
     58 O          31.3412    2.0182   -9.5912 O.2       9 UNK        -0.5390 
     59 N          33.1658    0.6763   -9.7570 N.am      10 UNK        -0.4204 
     60 CA         34.1566    1.5824   -9.1641 C.3       10 UNK         0.0237 
     61 CB         35.5656    1.0341   -9.4466 C.3       10 UNK        -0.1985 
     62 C          33.9717    1.8339   -7.6537 C.2       10 UNK         0.4970 
     63 O          34.5409    2.7980   -7.1396 O.2       10 UNK        -0.4914 
     64 N          33.1957    0.9833   -6.9748 N.am      11 UNK        -0.4285 
     65 CA         32.8059    1.1184   -5.5694 C.3       11 UNK         0.1007 
     66 C          31.3158    0.7303   -5.3902 C.2       11 UNK         0.5703 
     67 N          30.6661    1.2151   -4.3424 N.am      11 UNK        -0.7361 
     68 O          30.7551   -0.0291   -6.1762 O.2       11 UNK        -0.4986 
     69 C69        33.7661    0.3472   -4.6187 C.3       12 UNK        -0.0947 
     70 S70        33.6773   -1.4764   -4.7506 S.3       12 UNK        -0.2240 
     71 C71        32.6422   -1.8528   -3.2943 C.3       12 UNK         0.0194 
     72 H72        22.5931   -3.2702   -2.0729 H         1 UNK         0.0906 
     73 H73        23.4258   -4.6306   -2.8289 H         1 UNK         0.0906 
     74 H74        22.4008   -4.8964   -1.4173 H         1 UNK         0.0906 
     75 H75        25.5643   -4.8796   -2.2266 H         1 UNK         0.3140 
     76 H76        26.5257   -4.3070    0.4719 H         1 UNK         0.1085 
     77 H77        27.3052   -6.3240   -0.6907 H         1 UNK         0.0836 
     78 H78        27.9229   -5.3932   -2.0146 H         1 UNK         0.0836 
     79 H79        31.4685   -6.1231   -0.7434 H         1 UNK         0.0731 
     80 H80        30.1615   -6.9404   -1.5585 H         1 UNK         0.0731 
     81 H81        32.0958   -3.7480   -1.4252 H         1 UNK         0.1312 
     82 H82        31.1814   -2.6736   -5.4796 H         1 UNK         0.1406 
     83 H83        29.4017   -6.1554   -3.7305 H         1 UNK         0.1631 
     84 H84        29.2769   -5.7820   -6.1428 H         1 UNK         0.0717 
     85 H85        30.0213   -4.3983   -6.8954 H         1 UNK         0.0717 
     86 H86        28.7469   -1.6820   -5.5851 H         1 UNK         0.0934 
     87 H87        29.1221   -2.2435   -7.1915 H         1 UNK         0.0934 
     88 H88        26.7364   -1.9096   -7.8856 H         1 UNK         0.0739 
     89 H89        26.2764   -1.4447   -5.1133 H         1 UNK         0.3093 
     90 H90        23.0926    0.0824   -5.4075 H         1 UNK         0.0818 
     91 H91        22.3531   -1.9593   -4.2095 H         1 UNK         0.0819 
     92 H92        22.6059   -2.3143   -5.9085 H         1 UNK         0.0819 
     93 H93        23.8022   -2.8256   -4.7273 H         1 UNK         0.0819 
     94 H94        24.6857   -1.0408   -3.2470 H         1 UNK         0.3041 
     95 H95        26.2555    2.0487   -2.3969 H         1 UNK         0.0784 
     96 H96        24.0127    2.0194   -1.2687 H         1 UNK         0.0793 
     97 H97        24.1925    0.2988   -0.9478 H         1 UNK         0.0793 
     98 H98        25.2875    1.4594   -0.1992 H         1 UNK         0.0793 
     99 H99        26.5823   -0.4828   -1.2011 H         1 UNK         0.3024 
    100 H100       29.2633   -1.6408   -3.2456 H         1 UNK         0.1171 
    101 H101       30.2170    0.0280   -1.7031 H         1 UNK         0.0786 
    102 H102       30.3738   -1.5836   -1.0221 H         1 UNK         0.0786 
    103 H103       29.1433   -0.4808   -0.4148 H         1 UNK         0.0786 
    104 H104       28.2007   -3.4013   -2.5109 H         1 UNK         0.2977 
    105 H105       27.4858    0.8217   -5.7426 H         1 UNK         0.3127 
    106 H106       29.2028    2.3241   -7.2383 H         1 UNK         0.0770 
    107 H107       26.9221    3.3161   -5.4381 H         1 UNK         0.0814 
    108 H108       28.5227    2.8290   -4.8921 H         1 UNK         0.0814 
    109 H109       28.3373    4.2580   -5.8894 H         1 UNK         0.0814 
    110 H110       25.9157    1.7925   -8.1399 H         1 UNK         0.2983 
    111 H111       25.4960    4.1313   -9.7774 H         1 UNK         0.0947 
    112 H112       23.5790    2.7825  -10.6529 H         1 UNK         0.0806 
    113 H113       23.6146    2.7588   -8.8975 H         1 UNK         0.0806 
    114 H114       24.1778    1.3594   -9.8104 H         1 UNK         0.0806 
    115 H115       27.4122    1.2430  -10.2449 H         1 UNK         0.3000 
    116 H116       27.9376    2.0334  -13.0599 H         1 UNK         0.0850 
    117 H117       27.6463   -0.3296  -13.8295 H         1 UNK         0.0810 
    118 H118       26.1336    0.3462  -13.2480 H         1 UNK         0.0810 
    119 H119       27.0410   -0.7810  -12.2402 H         1 UNK         0.0810 
    120 H120       28.9697    0.1751  -10.1741 H         1 UNK         0.3040 
    121 H121       31.5312   -0.5557  -11.4158 H         1 UNK         0.0766 
    122 H122       31.8467   -1.8020   -9.3032 H         1 UNK         0.0812 
    123 H123       30.2344   -2.1309   -9.9125 H         1 UNK         0.0812 
    124 H124       30.4617   -1.0001   -8.5813 H         1 UNK         0.0812 
    125 H125       33.5093   -0.2255  -10.0562 H         1 UNK         0.3205 
    126 H126       34.0614    2.5498   -9.6619 H         1 UNK         0.0754 
    127 H127       36.3323    1.7041   -9.0544 H         1 UNK         0.0769 
    128 H128       35.7462    0.9327  -10.5170 H         1 UNK         0.0769 
    129 H129       35.7195    0.0581   -8.9841 H         1 UNK         0.0769 
    130 H130       32.7178    0.2429   -7.4684 H         1 UNK         0.2981 
    131 H131       32.8653    2.1769   -5.3085 H         1 UNK         0.0541 
    132 H132       31.1083    1.8420   -3.6903 H         1 UNK         0.3459 
    133 H133       29.6924    0.9558   -4.2233 H         1 UNK         0.3459 
    134 H134       33.5837    0.6446   -3.5849 H         1 UNK         0.0612 
    135 H135       34.7956    0.6452   -4.8222 H         1 UNK         0.0612 
    136 H136       31.9791   -1.0139   -3.0888 H         1 UNK         0.0624 
    137 H137       33.2970   -1.9468   -2.4267 H         1 UNK         0.0624 
@<TRIPOS>BOND
     1    1    2 1    
     2    1   72 1    
     3    1   73 1    
     4    1   74 1    
     5    2    3 2    
     6    2    4 am   BACKBONE|DICT|INTERRES
     7    4    5 1    
     8    4   75 1    
     9    5    6 1    
    10    5   35 1    
    11    5   76 1    
    12    6    7 1    
    13    6   77 1    
    14    6   78 1    
    15    7    8 1    
    16    8    9 1    
    17    8   79 1    
    18    8   80 1    
    19    9   10 ar   
    20    9   14 ar   
    21   10   11 ar   
    22   10   81 1    
    23   11   12 ar   
    24   11   71 1    
    25   12   13 ar   
    26   12   82 1    
    27   13   14 ar   
    28   13   15 1    
    29   14   83 1    
    30   15   16 1    
    31   15   84 1    
    32   15   85 1    
    33   16   17 1    
    34   17   18 1    
    35   17   86 1    
    36   17   87 1    
    37   18   19 1    
    38   18   37 1    
    39   18   88 1    
    40   19   20 am   BACKBONE|DICT|INTERRES
    41   19   89 1    
    42   20   21 2    
    43   20   22 1    
    44   22   23 1    
    45   22   24 1    
    46   22   90 1    
    47   23   91 1    
    48   23   92 1    
    49   23   93 1    
    50   24   25 am   BACKBONE|DICT|INTERRES
    51   24   94 1    
    52   25   26 2    
    53   25   27 1    
    54   27   28 1    
    55   27   29 1    
    56   27   95 1    
    57   28   96 1    
    58   28   97 1    
    59   28   98 1    
    60   29   30 am   BACKBONE|DICT|INTERRES
    61   29   99 1    
    62   30   31 2    
    63   30   32 1    
    64   32   33 1    
    65   32   34 1    
    66   32  100 1    
    67   33  101 1    
    68   33  102 1    
    69   33  103 1    
    70   34   35 am   BACKBONE|DICT|INTERRES
    71   34  104 1    
    72   35   36 2    
    73   37   38 2    
    74   37   39 am   BACKBONE|DICT|INTERRES
    75   39   40 1    
    76   39  105 1    
    77   40   41 1    
    78   40   42 1    
    79   40  106 1    
    80   41  107 1    
    81   41  108 1    
    82   41  109 1    
    83   42   43 2    
    84   42   44 am   BACKBONE|DICT|INTERRES
    85   44   45 1    
    86   44  110 1    
    87   45   46 1    
    88   45   47 1    
    89   45  111 1    
    90   46  112 1    
    91   46  113 1    
    92   46  114 1    
    93   47   48 2    
    94   47   49 am   BACKBONE|DICT|INTERRES
    95   49   50 1    
    96   49  115 1    
    97   50   51 1    
    98   50   52 1    
    99   50  116 1    
   100   51  117 1    
   101   51  118 1    
   102   51  119 1    
   103   52   53 2    
   104   52   54 am   BACKBONE|DICT|INTERRES
   105   54   55 1    
   106   54  120 1    
   107   55   56 1    
   108   55   57 1    
   109   55  121 1    
   110   56  122 1    
   111   56  123 1    
   112   56  124 1    
   113   57   58 2    
   114   57   59 am   BACKBONE|DICT|INTERRES
   115   59   60 1    
   116   59  125 1    
   117   60   61 1    
   118   60   62 1    
   119   60  126 1    
   120   61  127 1    
   121   61  128 1    
   122   61  129 1    
   123   62   63 2    
   124   62   64 am   BACKBONE|DICT|INTERRES
   125   64   65 1    
   126   64  130 1    
   127   65   66 1    
   128   65   69 1    
   129   65  131 1    
   130   66   67 am   BACKBONE|DICT|INTERRES
   131   66   68 2    
   132   67  132 1    
   133   67  133 1    
   134   69   70 1    
   135   69  134 1    
   136   69  135 1    
   137   70   71 1    
   138   71  136 1    
   139   71  137 1    
@<TRIPOS>SUBSTRUCTURE
     1 UNK         1 GROUP             0       ****    0 ROOT    
