@<TRIPOS>MOLECULE
3R137
137   139    1
SMALL
USER_CHARGES


@<TRIPOS>ATOM
      1 CA         28.9178   -3.0635    3.6754 C.3       0 UNK        -0.2020 
      2 C          29.0971   -2.5585    2.2513 C.2       0 UNK         0.4855 
      3 O          29.5767   -1.4413    2.0543 O.2       0 UNK        -0.5197 
      4 N          28.7260   -3.3759    1.2583 N.am      1 UNK        -0.4892 
      5 CA         28.7752   -3.0303   -0.1658 C.3       1 UNK         0.0835 
      6 C6         28.7413   -4.2944   -1.0630 C.3       12 UNK        -0.0855 
      7 S7         30.3179   -5.2148   -1.0959 S.3       12 UNK        -0.2931 
      8 C8         31.5483   -3.9990   -1.7045 C.3       12 UNK         0.0378 
      9 C9         31.0277   -3.0532   -2.7852 C.ar      12 UNK        -0.0802 
     10 C10        31.1587   -1.6681   -2.6238 C.ar      12 UNK        -0.0944 
     11 C11        30.6777   -0.7874   -3.5977 C.ar      12 UNK        -0.0787 
     12 C12        30.0420   -1.3028   -4.7299 C.ar      12 UNK        -0.0862 
     13 C13        29.9420   -2.6812   -4.9222 C.ar      12 UNK        -0.0733 
     14 C14        30.4387   -3.5542   -3.9512 C.ar      12 UNK        -0.0832 
     15 C15        29.3327   -3.2092   -6.2055 C.3       12 UNK         0.0240 
     16 S16        27.5214   -3.2361   -6.1062 S.3       12 UNK        -0.2522 
     17 C17        27.0822   -2.9337   -7.8572 C.3       12 UNK        -0.0967 
     18 CA         26.3798   -1.5728   -8.0874 C.3       5 UNK         0.0660 
     19 N          25.1494   -1.4953   -7.2911 N.am      5 UNK        -0.4015 
     20 C          24.2168   -0.5369   -7.2947 C.2       4 UNK         0.4946 
     21 O          24.2841    0.4687   -7.9998 O.2       4 UNK        -0.5353 
     22 CA         23.0434   -0.6851   -6.3059 C.3       4 UNK         0.0277 
     23 CB         21.8319   -1.3543   -6.9830 C.3       4 UNK        -0.1981 
     24 N          23.3918   -1.3444   -5.0340 N.am      4 UNK        -0.4209 
     25 C          23.7549   -2.6157   -4.8082 C.2       3 UNK         0.4942 
     26 O          23.8368   -3.4684   -5.6933 O.2       3 UNK        -0.5208 
     27 CA         24.1835   -2.9566   -3.3688 C.3       3 UNK         0.0250 
     28 CB         24.3767   -4.4692   -3.1526 C.3       3 UNK        -0.1990 
     29 N          25.4294   -2.2713   -3.0163 N.am      3 UNK        -0.4232 
     30 C          25.5373   -0.9770   -2.6871 C.2       2 UNK         0.4993 
     31 O          24.5729   -0.2097   -2.6472 O.2       2 UNK        -0.5286 
     32 CA         26.9556   -0.4508   -2.3899 C.3       2 UNK         0.0209 
     33 CB         26.9511    0.8806   -1.6101 C.3       2 UNK        -0.1931 
     34 N          27.8401   -1.4258   -1.7398 N.am      2 UNK        -0.4546 
     35 C          27.6505   -2.0550   -0.5691 C.2       1 UNK         0.5154 
     36 O          26.6495   -1.9228    0.1400 O.2       1 UNK        -0.5181 
     37 C          27.3446   -0.3716   -7.9194 C.2       5 UNK         0.5014 
     38 O          28.1985   -0.1522   -8.7824 O.2       5 UNK        -0.5248 
     39 N          27.1682    0.4217   -6.8519 N.am      6 UNK        -0.4434 
     40 CA         27.8166    1.7208   -6.6574 C.3       6 UNK         0.0363 
     41 CB         27.5136    2.2488   -5.2476 C.3       6 UNK        -0.1936 
     42 C          27.4175    2.7685   -7.7132 C.2       6 UNK         0.5081 
     43 O          28.2267    3.6461   -8.0078 O.2       6 UNK        -0.5248 
     44 N          26.2195    2.6480   -8.3091 N.am      7 UNK        -0.4718 
     45 CA         25.7653    3.5019   -9.4154 C.3       7 UNK         0.0273 
     46 CB         24.2607    3.2937   -9.6477 C.3       7 UNK        -0.1935 
     47 C          26.5501    3.2626  -10.7186 C.2       7 UNK         0.5018 
     48 O          26.6682    4.1806  -11.5303 O.2       7 UNK        -0.5186 
     49 N          27.1003    2.0504  -10.8751 N.am      8 UNK        -0.4240 
     50 CA         28.0340    1.6802  -11.9406 C.3       8 UNK         0.0235 
     51 CB         27.8254    0.1942  -12.2838 C.3       8 UNK        -0.2000 
     52 C          29.5021    1.9489  -11.5521 C.2       8 UNK         0.4941 
     53 O          30.3875    1.6839  -12.3658 O.2       8 UNK        -0.5273 
     54 N          29.7396    2.4392  -10.3231 N.am      9 UNK        -0.4262 
     55 CA         31.0368    2.6890   -9.6842 C.3       9 UNK         0.0264 
     56 CB         31.7943    3.8261  -10.4020 C.3       9 UNK        -0.1955 
     57 C          31.8907    1.4181   -9.5111 C.2       9 UNK         0.5031 
     58 O          33.1191    1.5090   -9.4756 O.2       9 UNK        -0.5390 
     59 N          31.2429    0.2517   -9.3770 N.am      10 UNK        -0.4204 
     60 CA         31.8898   -1.0628   -9.3075 C.3       10 UNK         0.0237 
     61 CB         30.9240   -2.1171   -9.8796 C.3       10 UNK        -0.1985 
     62 C          32.4121   -1.4240   -7.8998 C.2       10 UNK         0.4970 
     63 O          32.4132   -2.6012   -7.5379 O.2       10 UNK        -0.4914 
     64 N          32.8499   -0.4182   -7.1322 N.am      11 UNK        -0.4285 
     65 CA         33.3920   -0.5636   -5.7713 C.3       11 UNK         0.1007 
     66 C          34.8413   -1.1279   -5.7096 C.2       11 UNK         0.5703 
     67 N          35.5647   -1.2352   -6.8185 N.am      11 UNK        -0.7361 
     68 O          35.3178   -1.4810   -4.6336 O.2       11 UNK        -0.4986 
     69 C69        33.2739    0.7508   -4.9486 C.3       12 UNK        -0.0947 
     70 S70        31.5989    1.4816   -4.9333 S.3       12 UNK        -0.2240 
     71 C71        30.8709    0.7165   -3.4436 C.3       12 UNK         0.0194 
     72 H72        29.8774   -3.0804    4.1914 H         1 UNK         0.0906 
     73 H73        28.2466   -2.4041    4.2250 H         1 UNK         0.0906 
     74 H74        28.5010   -4.0702    3.7024 H         1 UNK         0.0906 
     75 H75        28.3227   -4.2754    1.4778 H         1 UNK         0.3140 
     76 H76        29.7097   -2.4942   -0.3324 H         1 UNK         0.1085 
     77 H77        27.9537   -4.9732   -0.7306 H         1 UNK         0.0836 
     78 H78        28.4862   -4.0572   -2.0968 H         1 UNK         0.0836 
     79 H79        31.9185   -3.4333   -0.8479 H         1 UNK         0.0731 
     80 H80        32.4087   -4.5414   -2.0985 H         1 UNK         0.0731 
     81 H81        31.6460   -1.2735   -1.7422 H         1 UNK         0.1312 
     82 H82        29.6678   -0.6303   -5.4897 H         1 UNK         0.1406 
     83 H83        30.3593   -4.6234   -4.0959 H         1 UNK         0.1631 
     84 H84        29.7031   -4.2098   -6.4335 H         1 UNK         0.0717 
     85 H85        29.6522   -2.5679   -7.0262 H         1 UNK         0.0717 
     86 H86        27.9559   -3.0335   -8.5023 H         1 UNK         0.0934 
     87 H87        26.4141   -3.7392   -8.1671 H         1 UNK         0.0934 
     88 H88        26.0629   -1.5440   -9.1318 H         1 UNK         0.0739 
     89 H89        24.9635   -2.3004   -6.6985 H         1 UNK         0.3093 
     90 H90        22.7452    0.3290   -6.0347 H         1 UNK         0.0818 
     91 H91        20.9779   -1.4044   -6.3077 H         1 UNK         0.0819 
     92 H92        21.5177   -0.7881   -7.8609 H         1 UNK         0.0819 
     93 H93        22.0557   -2.3677   -7.3173 H         1 UNK         0.0819 
     94 H94        23.4585   -0.7221   -4.2322 H         1 UNK         0.3041 
     95 H95        23.3894   -2.6208   -2.6980 H         1 UNK         0.0784 
     96 H96        23.4655   -5.0176   -3.3957 H         1 UNK         0.0793 
     97 H97        25.1754   -4.8695   -3.7790 H         1 UNK         0.0793 
     98 H98        24.6212   -4.6930   -2.1140 H         1 UNK         0.0793 
     99 H99        26.2735   -2.8218   -3.0722 H         1 UNK         0.3024 
    100 H100       27.3978   -0.2633   -3.3677 H         1 UNK         0.1171 
    101 H101       26.4059    1.6538   -2.1529 H         1 UNK         0.0786 
    102 H102       27.9636    1.2519   -1.4523 H         1 UNK         0.0786 
    103 H103       26.4776    0.7728   -0.6337 H         1 UNK         0.0786 
    104 H104       28.6924   -1.6283   -2.2476 H         1 UNK         0.2977 
    105 H105       26.4388    0.1737   -6.2014 H         1 UNK         0.3127 
    106 H106       28.8956    1.5726   -6.7422 H         1 UNK         0.0770 
    107 H107       26.4418    2.3182   -5.0580 H         1 UNK         0.0814 
    108 H108       27.9356    3.2449   -5.1046 H         1 UNK         0.0814 
    109 H109       27.9556    1.6113   -4.4865 H         1 UNK         0.0814 
    110 H110       25.5970    1.8885   -8.0422 H         1 UNK         0.2983 
    111 H111       25.9241    4.5429   -9.1245 H         1 UNK         0.0947 
    112 H112       23.8869    3.9751  -10.4131 H         1 UNK         0.0806 
    113 H113       23.6880    3.4803   -8.7392 H         1 UNK         0.0806 
    114 H114       24.0399    2.2788   -9.9805 H         1 UNK         0.0806 
    115 H115       26.9645    1.3652  -10.1438 H         1 UNK         0.3000 
    116 H116       27.8205    2.2701  -12.8346 H         1 UNK         0.0850 
    117 H117       28.4572   -0.1063  -13.1207 H         1 UNK         0.0810 
    118 H118       26.7933   -0.0058  -12.5723 H         1 UNK         0.0810 
    119 H119       28.0715   -0.4556  -11.4433 H         1 UNK         0.0810 
    120 H120       28.9406    2.6580   -9.7400 H         1 UNK         0.3040 
    121 H121       30.8138    3.0333   -8.6734 H         1 UNK         0.0766 
    122 H122       32.6869    4.1146   -9.8455 H         1 UNK         0.0812 
    123 H123       31.1733    4.7166  -10.4983 H         1 UNK         0.0812 
    124 H124       32.1166    3.5308  -11.4008 H         1 UNK         0.0812 
    125 H125       30.2281    0.2553   -9.3454 H         1 UNK         0.3205 
    126 H126       32.7666   -1.0487   -9.9583 H         1 UNK         0.0754 
    127 H127       31.3776   -3.1090   -9.8940 H         1 UNK         0.0769 
    128 H128       30.6448   -1.8781  -10.9061 H         1 UNK         0.0769 
    129 H129       30.0080   -2.1813   -9.2954 H         1 UNK         0.0769 
    130 H130       32.8707    0.5119   -7.5276 H         1 UNK         0.2981 
    131 H131       32.7860   -1.3167   -5.2680 H         1 UNK         0.0541 
    132 H132       35.1871   -0.9433   -7.7054 H         1 UNK         0.3459 
    133 H133       36.5003   -1.6056   -6.7638 H         1 UNK         0.3459 
    134 H134       33.9530    1.5040   -5.3518 H         1 UNK         0.0612 
    135 H135       33.5876    0.5849   -3.9163 H         1 UNK         0.0612 
    136 H136       29.9049    1.1788   -3.2431 H         1 UNK         0.0624 
    137 H137       31.5045    0.9439   -2.5851 H         1 UNK         0.0624 
@<TRIPOS>BOND
     1    1    2 1    
     2    1   72 1    
     3    1   73 1    
     4    1   74 1    
     5    2    3 2    
     6    2    4 am   BACKBONE|DICT|INTERRES
     7    4    5 1    
     8    4   75 1    
     9    5    6 1    
    10    5   35 1    
    11    5   76 1    
    12    6    7 1    
    13    6   77 1    
    14    6   78 1    
    15    7    8 1    
    16    8    9 1    
    17    8   79 1    
    18    8   80 1    
    19    9   10 ar   
    20    9   14 ar   
    21   10   11 ar   
    22   10   81 1    
    23   11   12 ar   
    24   11   71 1    
    25   12   13 ar   
    26   12   82 1    
    27   13   14 ar   
    28   13   15 1    
    29   14   83 1    
    30   15   16 1    
    31   15   84 1    
    32   15   85 1    
    33   16   17 1    
    34   17   18 1    
    35   17   86 1    
    36   17   87 1    
    37   18   19 1    
    38   18   37 1    
    39   18   88 1    
    40   19   20 am   BACKBONE|DICT|INTERRES
    41   19   89 1    
    42   20   21 2    
    43   20   22 1    
    44   22   23 1    
    45   22   24 1    
    46   22   90 1    
    47   23   91 1    
    48   23   92 1    
    49   23   93 1    
    50   24   25 am   BACKBONE|DICT|INTERRES
    51   24   94 1    
    52   25   26 2    
    53   25   27 1    
    54   27   28 1    
    55   27   29 1    
    56   27   95 1    
    57   28   96 1    
    58   28   97 1    
    59   28   98 1    
    60   29   30 am   BACKBONE|DICT|INTERRES
    61   29   99 1    
    62   30   31 2    
    63   30   32 1    
    64   32   33 1    
    65   32   34 1    
    66   32  100 1    
    67   33  101 1    
    68   33  102 1    
    69   33  103 1    
    70   34   35 am   BACKBONE|DICT|INTERRES
    71   34  104 1    
    72   35   36 2    
    73   37   38 2    
    74   37   39 am   BACKBONE|DICT|INTERRES
    75   39   40 1    
    76   39  105 1    
    77   40   41 1    
    78   40   42 1    
    79   40  106 1    
    80   41  107 1    
    81   41  108 1    
    82   41  109 1    
    83   42   43 2    
    84   42   44 am   BACKBONE|DICT|INTERRES
    85   44   45 1    
    86   44  110 1    
    87   45   46 1    
    88   45   47 1    
    89   45  111 1    
    90   46  112 1    
    91   46  113 1    
    92   46  114 1    
    93   47   48 2    
    94   47   49 am   BACKBONE|DICT|INTERRES
    95   49   50 1    
    96   49  115 1    
    97   50   51 1    
    98   50   52 1    
    99   50  116 1    
   100   51  117 1    
   101   51  118 1    
   102   51  119 1    
   103   52   53 2    
   104   52   54 am   BACKBONE|DICT|INTERRES
   105   54   55 1    
   106   54  120 1    
   107   55   56 1    
   108   55   57 1    
   109   55  121 1    
   110   56  122 1    
   111   56  123 1    
   112   56  124 1    
   113   57   58 2    
   114   57   59 am   BACKBONE|DICT|INTERRES
   115   59   60 1    
   116   59  125 1    
   117   60   61 1    
   118   60   62 1    
   119   60  126 1    
   120   61  127 1    
   121   61  128 1    
   122   61  129 1    
   123   62   63 2    
   124   62   64 am   BACKBONE|DICT|INTERRES
   125   64   65 1    
   126   64  130 1    
   127   65   66 1    
   128   65   69 1    
   129   65  131 1    
   130   66   67 am   BACKBONE|DICT|INTERRES
   131   66   68 2    
   132   67  132 1    
   133   67  133 1    
   134   69   70 1    
   135   69  134 1    
   136   69  135 1    
   137   70   71 1    
   138   71  136 1    
   139   71  137 1    
@<TRIPOS>SUBSTRUCTURE
     1 UNK         1 GROUP             0       ****    0 ROOT    
