@<TRIPOS>MOLECULE
3R137
137   139    1
SMALL
USER_CHARGES


@<TRIPOS>ATOM
      1 CA         23.0217   -7.1702   -4.4159 C.3       0 UNK        -0.2020 
      2 C          23.7191   -6.3147   -3.3691 C.2       0 UNK         0.4855 
      3 O          23.5958   -6.5859   -2.1747 O.2       0 UNK        -0.5197 
      4 N          24.4482   -5.2796   -3.8066 N.am      1 UNK        -0.4892 
      5 CA         25.2173   -4.3680   -2.9438 C.3       1 UNK         0.0835 
      6 C6         26.3292   -3.6160   -3.7254 C.3       12 UNK        -0.0855 
      7 S7         27.3731   -4.7342   -4.7234 S.3       12 UNK        -0.2931 
      8 C8         28.8304   -4.9820   -3.6546 C.3       12 UNK         0.0378 
      9 C9         29.9384   -3.9584   -3.8873 C.ar      12 UNK        -0.0802 
     10 C10        30.3963   -3.6869   -5.1817 C.ar      12 UNK        -0.0944 
     11 C11        31.4591   -2.8044   -5.3944 C.ar      12 UNK        -0.0787 
     12 C12        32.0725   -2.1903   -4.2988 C.ar      12 UNK        -0.0862 
     13 C13        31.6268   -2.4509   -2.9987 C.ar      12 UNK        -0.0733 
     14 C14        30.5611   -3.3364   -2.7998 C.ar      12 UNK        -0.0832 
     15 C15        32.3015   -1.7819   -1.8080 C.3       12 UNK         0.0240 
     16 S16        31.2045   -0.5901   -0.9736 S.3       12 UNK        -0.2522 
     17 C17        30.9669    0.6784   -2.2663 C.3       12 UNK        -0.0967 
     18 CA         29.7155    0.4056   -3.1450 C.3       5 UNK         0.0660 
     19 N          28.4812    0.2205   -2.3791 N.am      5 UNK        -0.4015 
     20 C          27.7951    1.1501   -1.7039 C.2       4 UNK         0.4946 
     21 O          28.1470    2.3237   -1.5676 O.2       4 UNK        -0.5353 
     22 CA         26.4530    0.6751   -1.1210 C.3       4 UNK         0.0277 
     23 CB         26.1458    1.3574    0.2241 C.3       4 UNK        -0.1981 
     24 N          25.3158    0.8771   -2.0261 N.am      4 UNK        -0.4209 
     25 C          25.2053    0.4820   -3.3034 C.2       3 UNK         0.4942 
     26 O          26.1025   -0.0568   -3.9557 O.2       3 UNK        -0.5208 
     27 CA         23.8072    0.6171   -3.9237 C.3       3 UNK         0.0250 
     28 CB         23.8573    0.7544   -5.4563 C.3       3 UNK        -0.1990 
     29 N          23.0605   -0.5883   -3.5753 N.am      3 UNK        -0.4232 
     30 C          22.4659   -0.8031   -2.3934 C.2       2 UNK         0.4993 
     31 O          22.2737    0.0748   -1.5510 O.2       2 UNK        -0.5286 
     32 CA         22.0823   -2.2582   -2.0790 C.3       2 UNK         0.0209 
     33 CB         20.6806   -2.5839   -2.6197 C.3       2 UNK        -0.1931 
     34 N          23.0530   -3.2196   -2.6161 N.am      2 UNK        -0.4546 
     35 C          24.3193   -3.3617   -2.1887 C.2       1 UNK         0.5154 
     36 O          24.7931   -2.7240   -1.2476 O.2       1 UNK        -0.5181 
     37 C          29.5468    1.4158   -4.3000 C.2       5 UNK         0.5014 
     38 O          30.4801    2.1591   -4.6066 O.2       5 UNK        -0.5248 
     39 N          28.3691    1.4074   -4.9364 N.am      6 UNK        -0.4434 
     40 CA         28.0139    2.2591   -6.0712 C.3       6 UNK         0.0363 
     41 CB         27.2423    3.4899   -5.5587 C.3       6 UNK        -0.1936 
     42 C          27.2277    1.4634   -7.1272 C.2       6 UNK         0.5081 
     43 O          26.4356    2.0473   -7.8674 O.2       6 UNK        -0.5248 
     44 N          27.4425    0.1407   -7.1745 N.am      7 UNK        -0.4718 
     45 CA         26.7547   -0.7888   -8.0758 C.3       7 UNK         0.0273 
     46 CB         27.0035   -2.2252   -7.5908 C.3       7 UNK        -0.1935 
     47 C          27.1592   -0.6430   -9.5535 C.2       7 UNK         0.5018 
     48 O          26.3782   -1.0166  -10.4300 O.2       7 UNK        -0.5186 
     49 N          28.3588   -0.1109   -9.8049 N.am      8 UNK        -0.4240 
     50 CA         28.9283    0.1408  -11.1224 C.3       8 UNK         0.0235 
     51 CB         29.5494   -1.1572  -11.6746 C.3       8 UNK        -0.2000 
     52 C          29.9879    1.2381  -10.9878 C.2       8 UNK         0.4941 
     53 O          30.4430    1.5193   -9.8760 O.2       8 UNK        -0.5273 
     54 N          30.4167    1.7960  -12.1282 N.am      9 UNK        -0.4262 
     55 CA         31.4925    2.7940  -12.2203 C.3       9 UNK         0.0264 
     56 CB         31.5800    3.3121  -13.6652 C.3       9 UNK        -0.1955 
     57 C          32.8683    2.2812  -11.7466 C.2       9 UNK         0.5031 
     58 O          33.7234    3.0908  -11.3867 O.2       9 UNK        -0.5390 
     59 N          33.0476    0.9531  -11.7365 N.am      10 UNK        -0.4204 
     60 CA         34.2095    0.2549  -11.1859 C.3       10 UNK         0.0237 
     61 CB         34.2149   -1.1881  -11.7193 C.3       10 UNK        -0.1985 
     62 C          34.2666    0.2558   -9.6445 C.2       10 UNK         0.4970 
     63 O          35.3253   -0.0625   -9.1004 O.2       10 UNK        -0.4914 
     64 N          33.1522    0.5781   -8.9708 N.am      11 UNK        -0.4285 
     65 CA         33.0486    0.6686   -7.5071 C.3       11 UNK         0.1007 
     66 C          33.5534    2.0486   -6.9806 C.2       11 UNK         0.5703 
     67 N          32.9471    2.6308   -5.9543 N.am      11 UNK        -0.7361 
     68 O          34.5401    2.5951   -7.4699 O.2       11 UNK        -0.4986 
     69 C69        31.6392    0.2549   -6.9908 C.3       12 UNK        -0.0947 
     70 S70        30.9957   -1.3028   -7.6919 S.3       12 UNK        -0.2240 
     71 C71        31.9705   -2.5585   -6.8064 C.3       12 UNK         0.0194 
     72 H72        23.3643   -8.2023   -4.3449 H         1 UNK         0.0906 
     73 H73        21.9441   -7.1572   -4.2545 H         1 UNK         0.0906 
     74 H74        23.2176   -6.8176   -5.4284 H         1 UNK         0.0906 
     75 H75        24.5491   -5.1234   -4.8002 H         1 UNK         0.3140 
     76 H76        25.7076   -4.9740   -2.1783 H         1 UNK         0.1085 
     77 H77        26.9639   -3.0453   -3.0445 H         1 UNK         0.0836 
     78 H78        25.8862   -2.8823   -4.4011 H         1 UNK         0.0836 
     79 H79        28.5154   -4.9943   -2.6100 H         1 UNK         0.0731 
     80 H80        29.2388   -5.9724   -3.8594 H         1 UNK         0.0731 
     81 H81        29.9336   -4.1766   -6.0277 H         1 UNK         0.1312 
     82 H82        32.9013   -1.5143   -4.4589 H         1 UNK         0.1406 
     83 H83        30.2268   -3.5458   -1.7925 H         1 UNK         0.1631 
     84 H84        33.2195   -1.2752   -2.1099 H         1 UNK         0.0717 
     85 H85        32.5985   -2.5479   -1.0904 H         1 UNK         0.0717 
     86 H86        30.8806    1.6511   -1.7790 H         1 UNK         0.0934 
     87 H87        31.8686    0.7276   -2.8797 H         1 UNK         0.0934 
     88 H88        29.8687   -0.5443   -3.6539 H         1 UNK         0.0739 
     89 H89        28.0591   -0.6924   -2.4689 H         1 UNK         0.3093 
     90 H90        26.5266   -0.3984   -0.9331 H         1 UNK         0.0818 
     91 H91        25.2593    0.9299    0.6931 H         1 UNK         0.0819 
     92 H92        26.9734    1.2311    0.9235 H         1 UNK         0.0819 
     93 H93        25.9801    2.4291    0.1057 H         1 UNK         0.0819 
     94 H94        24.4849    1.2588   -1.5949 H         1 UNK         0.3041 
     95 H95        23.3122    1.5002   -3.5135 H         1 UNK         0.0784 
     96 H96        22.8565    0.8484   -5.8777 H         1 UNK         0.0793 
     97 H97        24.4155    1.6441   -5.7488 H         1 UNK         0.0793 
     98 H98        24.3390   -0.1023   -5.9293 H         1 UNK         0.0793 
     99 H99        23.1892   -1.3816   -4.1857 H         1 UNK         0.3024 
    100 H100       22.0674   -2.3647   -0.9917 H         1 UNK         0.1171 
    101 H101       20.6371   -2.5115   -3.7071 H         1 UNK         0.0786 
    102 H102       19.9382   -1.8933   -2.2170 H         1 UNK         0.0786 
    103 H103       20.3709   -3.5903   -2.3370 H         1 UNK         0.0786 
    104 H104       22.7474   -3.8075   -3.3782 H         1 UNK         0.2977 
    105 H105       27.6317    0.7844   -4.6055 H         1 UNK         0.3127 
    106 H106       28.9203    2.6055   -6.5724 H         1 UNK         0.0770 
    107 H107       26.3076    3.2038   -5.0758 H         1 UNK         0.0814 
    108 H108       26.9977    4.1715   -6.3742 H         1 UNK         0.0814 
    109 H109       27.8331    4.0520   -4.8352 H         1 UNK         0.0814 
    110 H110       28.1207   -0.2601   -6.5429 H         1 UNK         0.2983 
    111 H111       25.6831   -0.5872   -8.0147 H         1 UNK         0.0947 
    112 H112       26.4843   -2.9484   -8.2210 H         1 UNK         0.0806 
    113 H113       26.6391   -2.3636   -6.5742 H         1 UNK         0.0806 
    114 H114       28.0637   -2.4814   -7.6046 H         1 UNK         0.0806 
    115 H115       28.9344    0.2090   -9.0351 H         1 UNK         0.3000 
    116 H116       28.1438    0.4970  -11.7936 H         1 UNK         0.0850 
    117 H117       30.3433   -1.5297  -11.0252 H         1 UNK         0.0810 
    118 H118       28.8022   -1.9455  -11.7689 H         1 UNK         0.0810 
    119 H119       29.9779   -1.0048  -12.6657 H         1 UNK         0.0810 
    120 H120       29.9926    1.5096  -12.9998 H         1 UNK         0.3040 
    121 H121       31.2222    3.6303  -11.5721 H         1 UNK         0.0766 
    122 H122       30.6402    3.7635  -13.9838 H         1 UNK         0.0812 
    123 H123       31.8264    2.5143  -14.3670 H         1 UNK         0.0812 
    124 H124       32.3517    4.0777  -13.7592 H         1 UNK         0.0812 
    125 H125       32.2916    0.3752  -12.0714 H         1 UNK         0.3205 
    126 H126       35.1105    0.7574  -11.5443 H         1 UNK         0.0754 
    127 H127       35.0913   -1.7328  -11.3651 H         1 UNK         0.0769 
    128 H128       34.2428   -1.2096  -12.8090 H         1 UNK         0.0769 
    129 H129       33.3338   -1.7425  -11.3930 H         1 UNK         0.0769 
    130 H130       32.3184    0.8551   -9.4764 H         1 UNK         0.2981 
    131 H131       33.7484   -0.0518   -7.0820 H         1 UNK         0.0541 
    132 H132       33.3081    3.5110   -5.6241 H         1 UNK         0.3459 
    133 H133       32.0970    2.2612   -5.5364 H         1 UNK         0.3459 
    134 H134       30.9122    1.0362   -7.2173 H         1 UNK         0.0612 
    135 H135       31.6555    0.1510   -5.9068 H         1 UNK         0.0612 
    136 H136       31.9228   -3.4895   -7.3729 H         1 UNK         0.0624 
    137 H137       33.0226   -2.2725   -6.7932 H         1 UNK         0.0624 
@<TRIPOS>BOND
     1    1    2 1    
     2    1   72 1    
     3    1   73 1    
     4    1   74 1    
     5    2    3 2    
     6    2    4 am   BACKBONE|DICT|INTERRES
     7    4    5 1    
     8    4   75 1    
     9    5    6 1    
    10    5   35 1    
    11    5   76 1    
    12    6    7 1    
    13    6   77 1    
    14    6   78 1    
    15    7    8 1    
    16    8    9 1    
    17    8   79 1    
    18    8   80 1    
    19    9   10 ar   
    20    9   14 ar   
    21   10   11 ar   
    22   10   81 1    
    23   11   12 ar   
    24   11   71 1    
    25   12   13 ar   
    26   12   82 1    
    27   13   14 ar   
    28   13   15 1    
    29   14   83 1    
    30   15   16 1    
    31   15   84 1    
    32   15   85 1    
    33   16   17 1    
    34   17   18 1    
    35   17   86 1    
    36   17   87 1    
    37   18   19 1    
    38   18   37 1    
    39   18   88 1    
    40   19   20 am   BACKBONE|DICT|INTERRES
    41   19   89 1    
    42   20   21 2    
    43   20   22 1    
    44   22   23 1    
    45   22   24 1    
    46   22   90 1    
    47   23   91 1    
    48   23   92 1    
    49   23   93 1    
    50   24   25 am   BACKBONE|DICT|INTERRES
    51   24   94 1    
    52   25   26 2    
    53   25   27 1    
    54   27   28 1    
    55   27   29 1    
    56   27   95 1    
    57   28   96 1    
    58   28   97 1    
    59   28   98 1    
    60   29   30 am   BACKBONE|DICT|INTERRES
    61   29   99 1    
    62   30   31 2    
    63   30   32 1    
    64   32   33 1    
    65   32   34 1    
    66   32  100 1    
    67   33  101 1    
    68   33  102 1    
    69   33  103 1    
    70   34   35 am   BACKBONE|DICT|INTERRES
    71   34  104 1    
    72   35   36 2    
    73   37   38 2    
    74   37   39 am   BACKBONE|DICT|INTERRES
    75   39   40 1    
    76   39  105 1    
    77   40   41 1    
    78   40   42 1    
    79   40  106 1    
    80   41  107 1    
    81   41  108 1    
    82   41  109 1    
    83   42   43 2    
    84   42   44 am   BACKBONE|DICT|INTERRES
    85   44   45 1    
    86   44  110 1    
    87   45   46 1    
    88   45   47 1    
    89   45  111 1    
    90   46  112 1    
    91   46  113 1    
    92   46  114 1    
    93   47   48 2    
    94   47   49 am   BACKBONE|DICT|INTERRES
    95   49   50 1    
    96   49  115 1    
    97   50   51 1    
    98   50   52 1    
    99   50  116 1    
   100   51  117 1    
   101   51  118 1    
   102   51  119 1    
   103   52   53 2    
   104   52   54 am   BACKBONE|DICT|INTERRES
   105   54   55 1    
   106   54  120 1    
   107   55   56 1    
   108   55   57 1    
   109   55  121 1    
   110   56  122 1    
   111   56  123 1    
   112   56  124 1    
   113   57   58 2    
   114   57   59 am   BACKBONE|DICT|INTERRES
   115   59   60 1    
   116   59  125 1    
   117   60   61 1    
   118   60   62 1    
   119   60  126 1    
   120   61  127 1    
   121   61  128 1    
   122   61  129 1    
   123   62   63 2    
   124   62   64 am   BACKBONE|DICT|INTERRES
   125   64   65 1    
   126   64  130 1    
   127   65   66 1    
   128   65   69 1    
   129   65  131 1    
   130   66   67 am   BACKBONE|DICT|INTERRES
   131   66   68 2    
   132   67  132 1    
   133   67  133 1    
   134   69   70 1    
   135   69  134 1    
   136   69  135 1    
   137   70   71 1    
   138   71  136 1    
   139   71  137 1    
@<TRIPOS>SUBSTRUCTURE
     1 UNK         1 GROUP             0       ****    0 ROOT    
