@<TRIPOS>MOLECULE
3R137
137   139    1
SMALL
USER_CHARGES


@<TRIPOS>ATOM
      1 CA         29.5552   -2.8161   -5.7574 C.3       0 UNK        -0.2020 
      2 C          28.5215   -3.8578   -5.3668 C.2       0 UNK         0.4855 
      3 O          27.9260   -4.4900   -6.2394 O.2       0 UNK        -0.5197 
      4 N          28.3054   -4.0490   -4.0600 N.am      1 UNK        -0.4892 
      5 CA         27.4559   -5.0982   -3.4817 C.3       1 UNK         0.0835 
      6 C6         27.8818   -5.4468   -2.0326 C.3       12 UNK        -0.0855 
      7 S7         29.6002   -6.0548   -1.9488 S.3       12 UNK        -0.2931 
      8 C8         30.3637   -4.8696   -0.7978 C.3       12 UNK         0.0378 
      9 C9         30.5275   -3.4823   -1.4050 C.ar      12 UNK        -0.0802 
     10 C10        31.4909   -3.2595   -2.3928 C.ar      12 UNK        -0.0944 
     11 C11        31.7105   -1.9776   -2.9074 C.ar      12 UNK        -0.0787 
     12 C12        30.9350   -0.9130   -2.4270 C.ar      12 UNK        -0.0862 
     13 C13        29.9706   -1.1199   -1.4349 C.ar      12 UNK        -0.0733 
     14 C14        29.7635   -2.4095   -0.9368 C.ar      12 UNK        -0.0832 
     15 C15        29.2042    0.0553   -0.8405 C.3       12 UNK         0.0240 
     16 S16        27.6619    0.4172   -1.7363 S.3       12 UNK        -0.2522 
     17 C17        28.2734    1.3618   -3.1721 C.3       12 UNK        -0.0967 
     18 CA         27.9536    0.6220   -4.4971 C.3       5 UNK         0.0660 
     19 N          26.5110    0.5887   -4.7788 N.am      5 UNK        -0.4015 
     20 C          25.7366    1.6030   -5.1974 C.2       4 UNK         0.4946 
     21 O          26.1756    2.7002   -5.5443 O.2       4 UNK        -0.5353 
     22 CA         24.2127    1.3757   -5.2317 C.3       4 UNK         0.0277 
     23 CB         23.6598    1.4221   -6.6657 C.3       4 UNK        -0.1981 
     24 N          23.7852    0.1266   -4.5973 N.am      4 UNK        -0.4209 
     25 C          23.6434   -0.0615   -3.2808 C.2       3 UNK         0.4942 
     26 O          23.9089    0.7980   -2.4406 O.2       3 UNK        -0.5208 
     27 CA         23.1026   -1.4241   -2.8083 C.3       3 UNK         0.0250 
     28 CB         21.5617   -1.4203   -2.8062 C.3       3 UNK        -0.1990 
     29 N          23.6209   -2.6102   -3.5092 N.am      3 UNK        -0.4232 
     30 C          23.4934   -2.9816   -4.7906 C.2       2 UNK         0.4993 
     31 O          22.9750   -2.2772   -5.6589 O.2       2 UNK        -0.5286 
     32 CA         24.0425   -4.3756   -5.1574 C.3       2 UNK         0.0209 
     33 CB         23.8461   -4.7176   -6.6466 C.3       2 UNK        -0.1931 
     34 N          25.4561   -4.5627   -4.8112 N.am      2 UNK        -0.4546 
     35 C          25.9504   -4.7644   -3.5832 C.2       1 UNK         0.5154 
     36 O          25.2586   -4.6983   -2.5642 O.2       1 UNK        -0.5181 
     37 C          28.7628    1.1313   -5.7075 C.2       5 UNK         0.5014 
     38 O          28.8999    0.3906   -6.6803 O.2       5 UNK        -0.5248 
     39 N          29.2396    2.3838   -5.6613 N.am      6 UNK        -0.4434 
     40 CA         29.9727    3.0514   -6.7434 C.3       6 UNK         0.0363 
     41 CB         30.5534    4.3726   -6.2143 C.3       6 UNK        -0.1936 
     42 C          29.1534    3.2853   -8.0307 C.2       6 UNK         0.5081 
     43 O          29.7454    3.6081   -9.0611 O.2       6 UNK        -0.5248 
     44 N          27.8246    3.1245   -7.9631 N.am      7 UNK        -0.4718 
     45 CA         26.9295    3.1016   -9.1211 C.3       7 UNK         0.0273 
     46 CB         25.7547    4.0596   -8.8608 C.3       7 UNK        -0.1935 
     47 C          26.4456    1.6782   -9.4688 C.2       7 UNK         0.5018 
     48 O          25.7823    1.5208  -10.4946 O.2       7 UNK        -0.5186 
     49 N          26.7782    0.6684   -8.6476 N.am      8 UNK        -0.4240 
     50 CA         26.5117   -0.7479   -8.9299 C.3       8 UNK         0.0235 
     51 CB         26.2306   -1.5200   -7.6271 C.3       8 UNK        -0.2000 
     52 C          27.6835   -1.3919   -9.6861 C.2       8 UNK         0.4941 
     53 O          27.4511   -2.1749  -10.6080 O.2       8 UNK        -0.5273 
     54 N          28.9138   -1.0432   -9.2955 N.am      9 UNK        -0.4262 
     55 CA         30.1647   -1.4553   -9.9263 C.3       9 UNK         0.0264 
     56 CB         30.6678   -2.7625   -9.2858 C.3       9 UNK        -0.1955 
     57 C          31.1791   -0.3189   -9.7549 C.2       9 UNK         0.5031 
     58 O          30.8838    0.6659   -9.0758 O.2       9 UNK        -0.5390 
     59 N          32.3718   -0.4696  -10.3431 N.am      10 UNK        -0.4204 
     60 CA         33.4647    0.5124  -10.3168 C.3       10 UNK         0.0237 
     61 CB         34.4527    0.1825  -11.4526 C.3       10 UNK        -0.1985 
     62 C          34.1624    0.6458   -8.9419 C.2       10 UNK         0.4970 
     63 O          35.3908    0.5774   -8.8679 O.2       10 UNK        -0.4914 
     64 N          33.3716    0.8389   -7.8796 N.am      11 UNK        -0.4285 
     65 CA         33.8336    1.0877   -6.5056 C.3       11 UNK         0.1007 
     66 C          34.3306    2.5434   -6.2545 C.2       11 UNK         0.5703 
     67 N          34.0886    3.4928   -7.1517 N.am      11 UNK        -0.7361 
     68 O          34.9583    2.8155   -5.2344 O.2       11 UNK        -0.4986 
     69 C69        32.7731    0.6443   -5.4547 C.3       12 UNK        -0.0947 
     70 S70        33.5585   -0.1281   -3.9974 S.3       12 UNK        -0.2240 
     71 C71        32.8029   -1.7914   -3.9633 C.3       12 UNK         0.0194 
     72 H72        29.2190   -2.2567   -6.6283 H         1 UNK         0.0906 
     73 H73        29.7449   -2.1088   -4.9529 H         1 UNK         0.0906 
     74 H74        30.4942   -3.3070   -6.0087 H         1 UNK         0.0906 
     75 H75        28.8329   -3.5096   -3.3868 H         1 UNK         0.3140 
     76 H76        27.5953   -6.0039   -4.0771 H         1 UNK         0.1085 
     77 H77        27.7529   -4.5844   -1.3763 H         1 UNK         0.0836 
     78 H78        27.2428   -6.2329   -1.6251 H         1 UNK         0.0836 
     79 H79        29.7771   -4.8294    0.1215 H         1 UNK         0.0731 
     80 H80        31.3462   -5.2473   -0.5106 H         1 UNK         0.0731 
     81 H81        32.0867   -4.0903   -2.7468 H         1 UNK         0.1312 
     82 H82        31.1009    0.0862   -2.8008 H         1 UNK         0.1406 
     83 H83        29.0304   -2.5697   -0.1573 H         1 UNK         0.1631 
     84 H84        29.8347    0.9452   -0.8084 H         1 UNK         0.0717 
     85 H85        28.9516   -0.1619    0.1985 H         1 UNK         0.0717 
     86 H86        27.8097    2.3497   -3.1520 H         1 UNK         0.0934 
     87 H87        29.3449    1.5290   -3.0586 H         1 UNK         0.0934 
     88 H88        28.2558   -0.4178   -4.3709 H         1 UNK         0.0739 
     89 H89        26.0430   -0.2693   -4.5297 H         1 UNK         0.3093 
     90 H90        23.7614    2.2032   -4.6800 H         1 UNK         0.0818 
     91 H91        22.5907    1.2100   -6.6856 H         1 UNK         0.0819 
     92 H92        23.7901    2.4114   -7.0997 H         1 UNK         0.0819 
     93 H93        24.1520    0.7095   -7.3247 H         1 UNK         0.0819 
     94 H94        23.5059   -0.6436   -5.2053 H         1 UNK         0.3041 
     95 H95        23.4289   -1.5382   -1.7730 H         1 UNK         0.0784 
     96 H96        21.1741   -0.5887   -2.2160 H         1 UNK         0.0793 
     97 H97        21.1533   -1.3214   -3.8126 H         1 UNK         0.0793 
     98 H98        21.1638   -2.3375   -2.3719 H         1 UNK         0.0793 
     99 H99        24.1246   -3.2689   -2.9174 H         1 UNK         0.3024 
    100 H100       23.4566   -5.0950   -4.5805 H         1 UNK         0.1171 
    101 H101       22.7936   -4.6558   -6.9271 H         1 UNK         0.0786 
    102 H102       24.1780   -5.7320   -6.8686 H         1 UNK         0.0786 
    103 H103       24.3954   -4.0357   -7.2949 H         1 UNK         0.0786 
    104 H104       26.1234   -4.5785   -5.5788 H         1 UNK         0.2977 
    105 H105       29.0193    2.9525   -4.8570 H         1 UNK         0.3127 
    106 H106       30.8065    2.4049   -7.0211 H         1 UNK         0.0770 
    107 H107       29.7683    5.0602   -5.8976 H         1 UNK         0.0814 
    108 H108       31.1382    4.8780   -6.9843 H         1 UNK         0.0814 
    109 H109       31.2192    4.2037   -5.3677 H         1 UNK         0.0814 
    110 H110       27.3965    2.9363   -7.0597 H         1 UNK         0.2983 
    111 H111       27.4512    3.4612  -10.0107 H         1 UNK         0.0947 
    112 H112       24.9945    3.9839   -9.6395 H         1 UNK         0.0806 
    113 H113       26.0956    5.0948   -8.8447 H         1 UNK         0.0806 
    114 H114       25.2732    3.8617   -7.9053 H         1 UNK         0.0806 
    115 H115       27.4031    0.8588   -7.8717 H         1 UNK         0.3000 
    116 H116       25.6255   -0.8368   -9.5621 H         1 UNK         0.0850 
    117 H117       26.1781   -2.5923   -7.8181 H         1 UNK         0.0810 
    118 H118       27.0097   -1.3708   -6.8826 H         1 UNK         0.0810 
    119 H119       25.2808   -1.2323   -7.1810 H         1 UNK         0.0810 
    120 H120       29.0322   -0.3653   -8.5448 H         1 UNK         0.3040 
    121 H121       30.0003   -1.6054  -10.9954 H         1 UNK         0.0766 
    122 H122       31.0195   -2.5999   -8.2672 H         1 UNK         0.0812 
    123 H123       31.4995   -3.1836   -9.8511 H         1 UNK         0.0812 
    124 H124       29.8853   -3.5211   -9.2539 H         1 UNK         0.0812 
    125 H125       32.5525   -1.3229  -10.8524 H         1 UNK         0.3205 
    126 H126       33.0347    1.4921  -10.5363 H         1 UNK         0.0754 
    127 H127       35.2439    0.9310  -11.5155 H         1 UNK         0.0769 
    128 H128       33.9533    0.1651  -12.4216 H         1 UNK         0.0769 
    129 H129       34.9307   -0.7865  -11.3027 H         1 UNK         0.0769 
    130 H130       32.3688    0.8816   -8.0508 H         1 UNK         0.2981 
    131 H131       34.7157    0.4579   -6.3740 H         1 UNK         0.0541 
    132 H132       33.5819    3.2847   -7.9962 H         1 UNK         0.3459 
    133 H133       34.4241    4.4274   -6.9805 H         1 UNK         0.3459 
    134 H134       32.0684   -0.0626   -5.8951 H         1 UNK         0.0612 
    135 H135       32.1607    1.4833   -5.1193 H         1 UNK         0.0612 
    136 H136       32.4103   -2.0569   -4.9445 H         1 UNK         0.0624 
    137 H137       33.6101   -2.4984   -3.7654 H         1 UNK         0.0624 
@<TRIPOS>BOND
     1    1    2 1    
     2    1   72 1    
     3    1   73 1    
     4    1   74 1    
     5    2    3 2    
     6    2    4 am   BACKBONE|DICT|INTERRES
     7    4    5 1    
     8    4   75 1    
     9    5    6 1    
    10    5   35 1    
    11    5   76 1    
    12    6    7 1    
    13    6   77 1    
    14    6   78 1    
    15    7    8 1    
    16    8    9 1    
    17    8   79 1    
    18    8   80 1    
    19    9   10 ar   
    20    9   14 ar   
    21   10   11 ar   
    22   10   81 1    
    23   11   12 ar   
    24   11   71 1    
    25   12   13 ar   
    26   12   82 1    
    27   13   14 ar   
    28   13   15 1    
    29   14   83 1    
    30   15   16 1    
    31   15   84 1    
    32   15   85 1    
    33   16   17 1    
    34   17   18 1    
    35   17   86 1    
    36   17   87 1    
    37   18   19 1    
    38   18   37 1    
    39   18   88 1    
    40   19   20 am   BACKBONE|DICT|INTERRES
    41   19   89 1    
    42   20   21 2    
    43   20   22 1    
    44   22   23 1    
    45   22   24 1    
    46   22   90 1    
    47   23   91 1    
    48   23   92 1    
    49   23   93 1    
    50   24   25 am   BACKBONE|DICT|INTERRES
    51   24   94 1    
    52   25   26 2    
    53   25   27 1    
    54   27   28 1    
    55   27   29 1    
    56   27   95 1    
    57   28   96 1    
    58   28   97 1    
    59   28   98 1    
    60   29   30 am   BACKBONE|DICT|INTERRES
    61   29   99 1    
    62   30   31 2    
    63   30   32 1    
    64   32   33 1    
    65   32   34 1    
    66   32  100 1    
    67   33  101 1    
    68   33  102 1    
    69   33  103 1    
    70   34   35 am   BACKBONE|DICT|INTERRES
    71   34  104 1    
    72   35   36 2    
    73   37   38 2    
    74   37   39 am   BACKBONE|DICT|INTERRES
    75   39   40 1    
    76   39  105 1    
    77   40   41 1    
    78   40   42 1    
    79   40  106 1    
    80   41  107 1    
    81   41  108 1    
    82   41  109 1    
    83   42   43 2    
    84   42   44 am   BACKBONE|DICT|INTERRES
    85   44   45 1    
    86   44  110 1    
    87   45   46 1    
    88   45   47 1    
    89   45  111 1    
    90   46  112 1    
    91   46  113 1    
    92   46  114 1    
    93   47   48 2    
    94   47   49 am   BACKBONE|DICT|INTERRES
    95   49   50 1    
    96   49  115 1    
    97   50   51 1    
    98   50   52 1    
    99   50  116 1    
   100   51  117 1    
   101   51  118 1    
   102   51  119 1    
   103   52   53 2    
   104   52   54 am   BACKBONE|DICT|INTERRES
   105   54   55 1    
   106   54  120 1    
   107   55   56 1    
   108   55   57 1    
   109   55  121 1    
   110   56  122 1    
   111   56  123 1    
   112   56  124 1    
   113   57   58 2    
   114   57   59 am   BACKBONE|DICT|INTERRES
   115   59   60 1    
   116   59  125 1    
   117   60   61 1    
   118   60   62 1    
   119   60  126 1    
   120   61  127 1    
   121   61  128 1    
   122   61  129 1    
   123   62   63 2    
   124   62   64 am   BACKBONE|DICT|INTERRES
   125   64   65 1    
   126   64  130 1    
   127   65   66 1    
   128   65   69 1    
   129   65  131 1    
   130   66   67 am   BACKBONE|DICT|INTERRES
   131   66   68 2    
   132   67  132 1    
   133   67  133 1    
   134   69   70 1    
   135   69  134 1    
   136   69  135 1    
   137   70   71 1    
   138   71  136 1    
   139   71  137 1    
@<TRIPOS>SUBSTRUCTURE
     1 UNK         1 GROUP             0       ****    0 ROOT    
