@<TRIPOS>MOLECULE
3R137
137   139    1
SMALL
USER_CHARGES


@<TRIPOS>ATOM
      1 CA         25.6539   -7.1427   -0.2538 C.3       0 UNK        -0.2020 
      2 C          26.1369   -5.7699    0.1891 C.2       0 UNK         0.4855 
      3 O          25.7599   -5.3058    1.2654 O.2       0 UNK        -0.5197 
      4 N          26.9691   -5.1167   -0.6325 N.am      1 UNK        -0.4892 
      5 CA         27.5457   -3.7894   -0.3666 C.3       1 UNK         0.0835 
      6 C6         28.7457   -3.4852   -1.2954 C.3       12 UNK        -0.0855 
      7 S7         30.0504   -4.7597   -1.2082 S.3       12 UNK        -0.2931 
      8 C8         31.5181   -3.8199   -1.7526 C.3       12 UNK         0.0378 
      9 C9         31.3217   -3.1021   -3.0853 C.ar      12 UNK        -0.0802 
     10 C10        31.7324   -1.7725   -3.2250 C.ar      12 UNK        -0.0944 
     11 C11        31.5636   -1.0974   -4.4378 C.ar      12 UNK        -0.0787 
     12 C12        30.9451   -1.7522   -5.5061 C.ar      12 UNK        -0.0862 
     13 C13        30.5225   -3.0781   -5.3801 C.ar      12 UNK        -0.0733 
     14 C14        30.7390   -3.7557   -4.1771 C.ar      12 UNK        -0.0832 
     15 C15        29.8324   -3.7723   -6.5467 C.3       12 UNK         0.0240 
     16 S16        28.1742   -4.4138   -6.1278 S.3       12 UNK        -0.2522 
     17 C17        27.3098   -2.9600   -5.4395 C.3       12 UNK        -0.0967 
     18 CA         26.7168   -2.0301   -6.5319 C.3       5 UNK         0.0660 
     19 N          25.3896   -1.5241   -6.1746 N.am      5 UNK        -0.4015 
     20 C          24.5353   -0.9672   -7.0477 C.2       4 UNK         0.4946 
     21 O          24.7552   -0.8826   -8.2555 O.2       4 UNK        -0.5353 
     22 CA         23.2315   -0.3691   -6.4857 C.3       4 UNK         0.0277 
     23 CB         22.1104   -1.4202   -6.4978 C.3       4 UNK        -0.1981 
     24 N          23.3755    0.1733   -5.1329 N.am      4 UNK        -0.4209 
     25 C          24.1898    1.1844   -4.7967 C.2       3 UNK         0.4942 
     26 O          24.8377    1.8350   -5.6142 O.2       3 UNK        -0.5208 
     27 CA         24.3619    1.4826   -3.2960 C.3       3 UNK         0.0250 
     28 CB         23.4409    2.6367   -2.8706 C.3       3 UNK        -0.1990 
     29 N          24.1347    0.3259   -2.4190 N.am      3 UNK        -0.4232 
     30 C          24.8096   -0.8316   -2.4731 C.2       2 UNK         0.4993 
     31 O          25.6890   -1.0757   -3.3050 O.2       2 UNK        -0.5286 
     32 CA         24.3572   -1.9238   -1.4918 C.3       2 UNK         0.0209 
     33 CB         23.1427   -2.6769   -2.0611 C.3       2 UNK        -0.1931 
     34 N          25.4225   -2.8896   -1.2263 N.am      2 UNK        -0.4546 
     35 C          26.5023   -2.6552   -0.4678 C.2       1 UNK         0.5154 
     36 O          26.6907   -1.6014    0.1428 O.2       1 UNK        -0.5181 
     37 C          27.6623   -0.8599   -6.8584 C.2       5 UNK         0.5014 
     38 O          28.3287   -0.8922   -7.8914 O.2       5 UNK        -0.5248 
     39 N          27.6579    0.1722   -5.9998 N.am      6 UNK        -0.4434 
     40 CA         28.4329    1.4054   -6.1722 C.3       6 UNK         0.0363 
     41 CB         28.3361    2.2570   -4.8971 C.3       6 UNK        -0.1936 
     42 C          28.0202    2.2204   -7.4129 C.2       6 UNK         0.5081 
     43 O          28.8660    2.8793   -8.0171 O.2       6 UNK        -0.5248 
     44 N          26.7335    2.1570   -7.7810 N.am      7 UNK        -0.4718 
     45 CA         26.1996    2.7190   -9.0218 C.3       7 UNK         0.0273 
     46 CB         24.6664    2.7817   -8.9380 C.3       7 UNK        -0.1935 
     47 C          26.6441    1.9302  -10.2665 C.2       7 UNK         0.5018 
     48 O          26.8929    2.5436  -11.3052 O.2       7 UNK        -0.5186 
     49 N          26.7303    0.5966  -10.1488 N.am      8 UNK        -0.4240 
     50 CA         27.1652   -0.3038  -11.2190 C.3       8 UNK         0.0235 
     51 CB         26.7530   -1.7485  -10.8909 C.3       8 UNK        -0.2000 
     52 C          28.6744   -0.2144  -11.4990 C.2       8 UNK         0.4941 
     53 O          29.0630   -0.1917  -12.6681 O.2       8 UNK        -0.5273 
     54 N          29.4938   -0.1578  -10.4420 N.am      9 UNK        -0.4262 
     55 CA         30.9449   -0.0109  -10.5205 C.3       9 UNK         0.0264 
     56 CB         31.6116   -1.3975  -10.4853 C.3       9 UNK        -0.1955 
     57 C          31.4091    0.8536   -9.3469 C.2       9 UNK         0.5031 
     58 O          31.0905    0.5316   -8.2046 O.2       9 UNK        -0.5390 
     59 N          32.1725    1.9158   -9.6367 N.am      10 UNK        -0.4204 
     60 CA         32.6289    2.9090   -8.6545 C.3       10 UNK         0.0237 
     61 CB         33.2705    4.0922   -9.3991 C.3       10 UNK        -0.1985 
     62 C          33.5885    2.3706   -7.5746 C.2       10 UNK         0.4970 
     63 O          33.7085    3.0049   -6.5271 O.2       10 UNK        -0.4914 
     64 N          34.2555    1.2441   -7.8635 N.am      11 UNK        -0.4285 
     65 CA         35.1744    0.4764   -7.0028 C.3       11 UNK         0.1007 
     66 C          36.4468    1.2149   -6.4824 C.2       11 UNK         0.5703 
     67 N          36.7796    2.3984   -6.9831 N.am      11 UNK        -0.7361 
     68 O          37.1791    0.6829   -5.6509 O.2       11 UNK        -0.4986 
     69 C69        34.4381   -0.3899   -5.9357 C.3       12 UNK        -0.0947 
     70 S70        33.8532    0.4842   -4.4397 S.3       12 UNK        -0.2240 
     71 C71        32.0428    0.3405   -4.5921 C.3       12 UNK         0.0194 
     72 H72        25.9459   -7.8965    0.4769 H         1 UNK         0.0906 
     73 H73        24.5672   -7.1499   -0.3351 H         1 UNK         0.0906 
     74 H74        26.0683   -7.4296   -1.2201 H         1 UNK         0.0906 
     75 H75        27.2785   -5.5600   -1.4864 H         1 UNK         0.3140 
     76 H76        27.9098   -3.7877    0.6635 H         1 UNK         0.1085 
     77 H77        28.4171   -3.4013   -2.3336 H         1 UNK         0.0836 
     78 H78        29.1865   -2.5200   -1.0364 H         1 UNK         0.0836 
     79 H79        31.7799   -3.1080   -0.9681 H         1 UNK         0.0731 
     80 H80        32.3625   -4.5044   -1.8426 H         1 UNK         0.0731 
     81 H81        32.1984   -1.2605   -2.3941 H         1 UNK         0.1312 
     82 H82        30.7919   -1.2286   -6.4395 H         1 UNK         0.1406 
     83 H83        30.4206   -4.7849   -4.0812 H         1 UNK         0.1631 
     84 H84        30.4548   -4.6047   -6.8774 H         1 UNK         0.0717 
     85 H85        29.7455   -3.1027   -7.4033 H         1 UNK         0.0717 
     86 H86        26.5061   -3.3655   -4.8227 H         1 UNK         0.0934 
     87 H87        27.9517   -2.4265   -4.7354 H         1 UNK         0.0934 
     88 H88        26.5900   -2.6099   -7.4493 H         1 UNK         0.0739 
     89 H89        25.1808   -1.4902   -5.1820 H         1 UNK         0.3093 
     90 H90        22.9382    0.4528   -7.1421 H         1 UNK         0.0818 
     91 H91        21.1583   -0.9895   -6.1870 H         1 UNK         0.0819 
     92 H92        21.9678   -1.8253   -7.5008 H         1 UNK         0.0819 
     93 H93        22.3331   -2.2587   -5.8366 H         1 UNK         0.0819 
     94 H94        22.8680   -0.2942   -4.3965 H         1 UNK         0.3041 
     95 H95        25.3964    1.8001   -3.1503 H         1 UNK         0.0784 
     96 H96        23.6078    3.5181   -3.4919 H         1 UNK         0.0793 
     97 H97        22.3875    2.3688   -2.9617 H         1 UNK         0.0793 
     98 H98        23.6255    2.9331   -1.8377 H         1 UNK         0.0793 
     99 H99        23.4138    0.4333   -1.7193 H         1 UNK         0.3024 
    100 H100       24.0764   -1.4526   -0.5468 H         1 UNK         0.1171 
    101 H101       22.3020   -2.0026   -2.2290 H         1 UNK         0.0786 
    102 H102       23.3732   -3.1553   -3.0142 H         1 UNK         0.0786 
    103 H103       22.7990   -3.4503   -1.3735 H         1 UNK         0.0786 
    104 H104       25.3658   -3.7769   -1.7033 H         1 UNK         0.2977 
    105 H105       27.0627    0.1183   -5.1846 H         1 UNK         0.3127 
    106 H106       29.4758    1.1172   -6.3034 H         1 UNK         0.0770 
    107 H107       27.3139    2.5836   -4.7052 H         1 UNK         0.0814 
    108 H108       28.9528    3.1526   -4.9833 H         1 UNK         0.0814 
    109 H109       28.6861    1.7065   -4.0236 H         1 UNK         0.0814 
    110 H110       26.0742    1.7033   -7.1559 H         1 UNK         0.2983 
    111 H111       26.5772    3.7390   -9.1227 H         1 UNK         0.0947 
    112 H112       24.2463    3.2465   -9.8309 H         1 UNK         0.0806 
    113 H113       24.3393    3.3701   -8.0803 H         1 UNK         0.0806 
    114 H114       24.2260    1.7884   -8.8497 H         1 UNK         0.0806 
    115 H115       26.4817    0.1675   -9.2656 H         1 UNK         0.3000 
    116 H116       26.6442   -0.0103  -12.1329 H         1 UNK         0.0850 
    117 H117       27.0354   -2.4264  -11.6973 H         1 UNK         0.0810 
    118 H118       25.6740   -1.8321  -10.7596 H         1 UNK         0.0810 
    119 H119       27.2287   -2.1112   -9.9797 H         1 UNK         0.0810 
    120 H120       29.1084   -0.2084   -9.4984 H         1 UNK         0.3040 
    121 H121       31.2167    0.4891  -11.4527 H         1 UNK         0.0766 
    122 H122       32.6980   -1.3115  -10.5259 H         1 UNK         0.0812 
    123 H123       31.3012   -2.0078  -11.3335 H         1 UNK         0.0812 
    124 H124       31.3590   -1.9399   -9.5728 H         1 UNK         0.0812 
    125 H125       32.4005    2.1010  -10.6032 H         1 UNK         0.3205 
    126 H126       31.7427    3.2766   -8.1320 H         1 UNK         0.0754 
    127 H127       33.5932    4.8658   -8.7006 H         1 UNK         0.0769 
    128 H128       32.5648    4.5577  -10.0876 H         1 UNK         0.0769 
    129 H129       34.1464    3.7833   -9.9711 H         1 UNK         0.0769 
    130 H130       34.0933    0.8406   -8.7735 H         1 UNK         0.2981 
    131 H131       35.5989   -0.2455   -7.7012 H         1 UNK         0.0541 
    132 H132       37.6138    2.8575   -6.6532 H         1 UNK         0.3459 
    133 H133       36.1851    2.8507   -7.6582 H         1 UNK         0.3459 
    134 H134       35.1027   -1.1857   -5.5957 H         1 UNK         0.0612 
    135 H135       33.5997   -0.9044   -6.4066 H         1 UNK         0.0612 
    136 H136       31.7380    0.7570   -5.5528 H         1 UNK         0.0624 
    137 H137       31.5727    0.9576   -3.8255 H         1 UNK         0.0624 
@<TRIPOS>BOND
     1    1    2 1    
     2    1   72 1    
     3    1   73 1    
     4    1   74 1    
     5    2    3 2    
     6    2    4 am   BACKBONE|DICT|INTERRES
     7    4    5 1    
     8    4   75 1    
     9    5    6 1    
    10    5   35 1    
    11    5   76 1    
    12    6    7 1    
    13    6   77 1    
    14    6   78 1    
    15    7    8 1    
    16    8    9 1    
    17    8   79 1    
    18    8   80 1    
    19    9   10 ar   
    20    9   14 ar   
    21   10   11 ar   
    22   10   81 1    
    23   11   12 ar   
    24   11   71 1    
    25   12   13 ar   
    26   12   82 1    
    27   13   14 ar   
    28   13   15 1    
    29   14   83 1    
    30   15   16 1    
    31   15   84 1    
    32   15   85 1    
    33   16   17 1    
    34   17   18 1    
    35   17   86 1    
    36   17   87 1    
    37   18   19 1    
    38   18   37 1    
    39   18   88 1    
    40   19   20 am   BACKBONE|DICT|INTERRES
    41   19   89 1    
    42   20   21 2    
    43   20   22 1    
    44   22   23 1    
    45   22   24 1    
    46   22   90 1    
    47   23   91 1    
    48   23   92 1    
    49   23   93 1    
    50   24   25 am   BACKBONE|DICT|INTERRES
    51   24   94 1    
    52   25   26 2    
    53   25   27 1    
    54   27   28 1    
    55   27   29 1    
    56   27   95 1    
    57   28   96 1    
    58   28   97 1    
    59   28   98 1    
    60   29   30 am   BACKBONE|DICT|INTERRES
    61   29   99 1    
    62   30   31 2    
    63   30   32 1    
    64   32   33 1    
    65   32   34 1    
    66   32  100 1    
    67   33  101 1    
    68   33  102 1    
    69   33  103 1    
    70   34   35 am   BACKBONE|DICT|INTERRES
    71   34  104 1    
    72   35   36 2    
    73   37   38 2    
    74   37   39 am   BACKBONE|DICT|INTERRES
    75   39   40 1    
    76   39  105 1    
    77   40   41 1    
    78   40   42 1    
    79   40  106 1    
    80   41  107 1    
    81   41  108 1    
    82   41  109 1    
    83   42   43 2    
    84   42   44 am   BACKBONE|DICT|INTERRES
    85   44   45 1    
    86   44  110 1    
    87   45   46 1    
    88   45   47 1    
    89   45  111 1    
    90   46  112 1    
    91   46  113 1    
    92   46  114 1    
    93   47   48 2    
    94   47   49 am   BACKBONE|DICT|INTERRES
    95   49   50 1    
    96   49  115 1    
    97   50   51 1    
    98   50   52 1    
    99   50  116 1    
   100   51  117 1    
   101   51  118 1    
   102   51  119 1    
   103   52   53 2    
   104   52   54 am   BACKBONE|DICT|INTERRES
   105   54   55 1    
   106   54  120 1    
   107   55   56 1    
   108   55   57 1    
   109   55  121 1    
   110   56  122 1    
   111   56  123 1    
   112   56  124 1    
   113   57   58 2    
   114   57   59 am   BACKBONE|DICT|INTERRES
   115   59   60 1    
   116   59  125 1    
   117   60   61 1    
   118   60   62 1    
   119   60  126 1    
   120   61  127 1    
   121   61  128 1    
   122   61  129 1    
   123   62   63 2    
   124   62   64 am   BACKBONE|DICT|INTERRES
   125   64   65 1    
   126   64  130 1    
   127   65   66 1    
   128   65   69 1    
   129   65  131 1    
   130   66   67 am   BACKBONE|DICT|INTERRES
   131   66   68 2    
   132   67  132 1    
   133   67  133 1    
   134   69   70 1    
   135   69  134 1    
   136   69  135 1    
   137   70   71 1    
   138   71  136 1    
   139   71  137 1    
@<TRIPOS>SUBSTRUCTURE
     1 UNK         1 GROUP             0       ****    0 ROOT    
