@<TRIPOS>MOLECULE
3R137
137   139    1
SMALL
USER_CHARGES


@<TRIPOS>ATOM
      1 CA         26.7995   -6.9262   -3.2566 C.3       0 UNK        -0.2020 
      2 C          26.6340   -5.9296   -2.1188 C.2       0 UNK         0.4855 
      3 O          25.9794   -6.2393   -1.1230 O.2       0 UNK        -0.5197 
      4 N          27.2253   -4.7380   -2.2594 N.am      1 UNK        -0.4892 
      5 CA         27.0810   -3.6206   -1.3240 C.3       1 UNK         0.0835 
      6 C6         28.3277   -2.6954   -1.3526 C.3       12 UNK        -0.0855 
      7 S7         29.5766   -3.1420   -0.0937 S.3       12 UNK        -0.2931 
      8 C8         30.4787   -4.5530   -0.8208 C.3       12 UNK         0.0378 
      9 C9         31.0053   -4.2606   -2.2177 C.ar      12 UNK        -0.0802 
     10 C10        32.0324   -3.3312   -2.4186 C.ar      12 UNK        -0.0944 
     11 C11        32.4631   -3.0260   -3.7144 C.ar      12 UNK        -0.0787 
     12 C12        31.8673   -3.6599   -4.8068 C.ar      12 UNK        -0.0862 
     13 C13        30.8269   -4.5716   -4.6148 C.ar      12 UNK        -0.0733 
     14 C14        30.4280   -4.8975   -3.3185 C.ar      12 UNK        -0.0832 
     15 C15        30.0587   -5.1211   -5.8054 C.3       12 UNK         0.0240 
     16 S16        28.4696   -4.2430   -5.9937 S.3       12 UNK        -0.2522 
     17 C17        29.0367   -2.5075   -6.0611 C.3       12 UNK        -0.0967 
     18 CA         28.0799   -1.5866   -6.8427 C.3       5 UNK         0.0660 
     19 N          26.7466   -1.5436   -6.2384 N.am      5 UNK        -0.4015 
     20 C          25.6596   -1.0506   -6.8442 C.2       4 UNK         0.4946 
     21 O          25.6553   -0.6057   -7.9916 O.2       4 UNK        -0.5353 
     22 CA         24.3842   -0.9872   -5.9948 C.3       4 UNK         0.0277 
     23 CB         23.7239   -2.3711   -5.8857 C.3       4 UNK        -0.1981 
     24 N          24.6521   -0.4573   -4.6550 N.am      4 UNK        -0.4209 
     25 C          24.9781    0.8188   -4.3969 C.2       3 UNK         0.4942 
     26 O          25.1229    1.6596   -5.2841 O.2       3 UNK        -0.5208 
     27 CA         25.2423    1.2364   -2.9330 C.3       3 UNK         0.0250 
     28 CB         24.5321    2.5591   -2.5774 C.3       3 UNK        -0.1990 
     29 N          24.9623    0.1953   -1.9350 N.am      3 UNK        -0.4232 
     30 C          23.7847   -0.3782   -1.6428 C.2       2 UNK         0.4993 
     31 O          22.7076   -0.0100   -2.1132 O.2       2 UNK        -0.5286 
     32 CA         23.8277   -1.6013   -0.7007 C.3       2 UNK         0.0209 
     33 CB         22.7007   -2.6087   -1.0160 C.3       2 UNK        -0.1931 
     34 N          25.1240   -2.3037   -0.6533 N.am      2 UNK        -0.4546 
     35 C          25.7970   -2.8464   -1.6814 C.2       1 UNK         0.5154 
     36 O          25.4690   -2.7167   -2.8654 O.2       1 UNK        -0.5181 
     37 C          28.6925   -0.1777   -7.0056 C.2       5 UNK         0.5014 
     38 O          29.4738    0.0379   -7.9344 O.2       5 UNK        -0.5248 
     39 N          28.3195    0.7622   -6.1229 N.am      6 UNK        -0.4434 
     40 CA         28.6982    2.1727   -6.2187 C.3       6 UNK         0.0363 
     41 CB         28.4313    2.8937   -4.8882 C.3       6 UNK        -0.1936 
     42 C          27.9831    2.8681   -7.3873 C.2       6 UNK         0.5081 
     43 O          28.6380    3.5674   -8.1582 O.2       6 UNK        -0.5248 
     44 N          26.6750    2.6137   -7.5442 N.am      7 UNK        -0.4718 
     45 CA         25.8673    3.0654   -8.6837 C.3       7 UNK         0.0273 
     46 CB         24.3868    2.7427   -8.4279 C.3       7 UNK        -0.1935 
     47 C          26.3341    2.4713  -10.0257 C.2       7 UNK         0.5018 
     48 O          26.3090    3.1716  -11.0380 O.2       7 UNK        -0.5186 
     49 N          26.8003    1.2141  -10.0000 N.am      8 UNK        -0.4240 
     50 CA         27.4565    0.5332  -11.1219 C.3       8 UNK         0.0235 
     51 CB         27.4470   -0.9826  -10.8645 C.3       8 UNK        -0.2000 
     52 C          28.8947    1.0222  -11.3998 C.2       8 UNK         0.4941 
     53 O          29.4814    0.5909  -12.3932 O.2       8 UNK        -0.5273 
     54 N          29.4365    1.8954  -10.5360 N.am      9 UNK        -0.4262 
     55 CA         30.7630    2.5167  -10.5963 C.3       9 UNK         0.0264 
     56 CB         30.9034    3.4077  -11.8499 C.3       9 UNK        -0.1955 
     57 C          31.9300    1.5251  -10.4243 C.2       9 UNK         0.5031 
     58 O          33.0063    1.7564  -10.9793 O.2       9 UNK        -0.5390 
     59 N          31.7257    0.4600   -9.6343 N.am      10 UNK        -0.4204 
     60 CA         32.7824   -0.4890   -9.2649 C.3       10 UNK         0.0237 
     61 CB         32.1545   -1.8034   -8.7775 C.3       10 UNK        -0.1985 
     62 C          33.7220    0.0862   -8.1905 C.2       10 UNK         0.4970 
     63 O          34.9241   -0.1775   -8.2340 O.2       10 UNK        -0.4914 
     64 N          33.1568    0.8633   -7.2598 N.am      11 UNK        -0.4285 
     65 CA         33.8594    1.5239   -6.1493 C.3       11 UNK         0.1007 
     66 C          33.1713    2.8418   -5.6880 C.2       11 UNK         0.5703 
     67 N          32.3077    3.4513   -6.4934 N.am      11 UNK        -0.7361 
     68 O          33.4371    3.3403   -4.5968 O.2       11 UNK        -0.4986 
     69 C69        34.2121    0.5474   -4.9892 C.3       12 UNK        -0.0947 
     70 S70        32.7746   -0.3642   -4.3285 S.3       12 UNK        -0.2240 
     71 C71        33.5333   -1.9762   -3.9559 C.3       12 UNK         0.0194 
     72 H72        27.3341   -6.4968   -4.1035 H         1 UNK         0.0906 
     73 H73        27.3519   -7.8003   -2.9128 H         1 UNK         0.0906 
     74 H74        25.8230   -7.2572   -3.6091 H         1 UNK         0.0906 
     75 H75        27.6714   -4.5090   -3.1359 H         1 UNK         0.3140 
     76 H76        26.9545   -4.0163   -0.3133 H         1 UNK         0.1085 
     77 H77        28.7800   -2.6547   -2.3448 H         1 UNK         0.0836 
     78 H78        28.0547   -1.6624   -1.1272 H         1 UNK         0.0836 
     79 H79        29.8202   -5.4231   -0.8277 H         1 UNK         0.0731 
     80 H80        31.3149   -4.8107   -0.1694 H         1 UNK         0.0731 
     81 H81        32.4712   -2.8246   -1.5698 H         1 UNK         0.1312 
     82 H82        32.1773   -3.3973   -5.8091 H         1 UNK         0.1406 
     83 H83        29.6306   -5.6112   -3.1726 H         1 UNK         0.1631 
     84 H84        29.8701   -6.1870   -5.6697 H         1 UNK         0.0717 
     85 H85        30.6399   -5.0221   -6.7237 H         1 UNK         0.0717 
     86 H86        29.1858   -2.1456   -5.0414 H         1 UNK         0.0934 
     87 H87        30.0165   -2.4961   -6.5357 H         1 UNK         0.0934 
     88 H88        27.9696   -2.0025   -7.8456 H         1 UNK         0.0739 
     89 H89        26.6536   -1.9232   -5.3068 H         1 UNK         0.3093 
     90 H90        23.6843   -0.3131   -6.4936 H         1 UNK         0.0818 
     91 H91        23.4938   -2.7716   -6.8740 H         1 UNK         0.0819 
     92 H92        24.3685   -3.0932   -5.3828 H         1 UNK         0.0819 
     93 H93        22.7868   -2.3187   -5.3311 H         1 UNK         0.0819 
     94 H94        24.6191   -1.1200   -3.8874 H         1 UNK         0.3041 
     95 H95        26.3159    1.4190   -2.8703 H         1 UNK         0.0784 
     96 H96        24.8621    3.3684   -3.2301 H         1 UNK         0.0793 
     97 H97        23.4498    2.4811   -2.6842 H         1 UNK         0.0793 
     98 H98        24.7480    2.8633   -1.5533 H         1 UNK         0.0793 
     99 H99        25.7764   -0.1927   -1.4802 H         1 UNK         0.3024 
    100 H100       23.6497   -1.2078    0.3017 H         1 UNK         0.1171 
    101 H101       22.7231   -3.4568   -0.3316 H         1 UNK         0.0786 
    102 H102       21.7176   -2.1460   -0.9197 H         1 UNK         0.0786 
    103 H103       22.7798   -2.9966   -2.0324 H         1 UNK         0.0786 
    104 H104       25.5044   -2.4289    0.2758 H         1 UNK         0.2977 
    105 H105       27.6601    0.5137   -5.4023 H         1 UNK         0.3127 
    106 H106       29.7718    2.2177   -6.4109 H         1 UNK         0.0770 
    107 H107       27.3693    2.9353   -4.6483 H         1 UNK         0.0814 
    108 H108       28.7909    3.9226   -4.9308 H         1 UNK         0.0814 
    109 H109       28.9476    2.4065   -4.0610 H         1 UNK         0.0814 
    110 H110       26.1879    2.0787   -6.8291 H         1 UNK         0.2983 
    111 H111       25.9729    4.1502   -8.7530 H         1 UNK         0.0947 
    112 H112       23.7618    3.0974   -9.2485 H         1 UNK         0.0806 
    113 H113       24.0291    3.2219   -7.5163 H         1 UNK         0.0806 
    114 H114       24.2179    1.6702   -8.3279 H         1 UNK         0.0806 
    115 H115       26.6849    0.6790   -9.1442 H         1 UNK         0.3000 
    116 H116       26.8708    0.7280  -12.0227 H         1 UNK         0.0850 
    117 H117       27.8079   -1.5286  -11.7370 H         1 UNK         0.0810 
    118 H118       26.4426   -1.3466  -10.6470 H         1 UNK         0.0810 
    119 H119       28.0923   -1.2490  -10.0284 H         1 UNK         0.0810 
    120 H120       28.8753    2.1847   -9.7430 H         1 UNK         0.3040 
    121 H121       30.8155    3.1774   -9.7304 H         1 UNK         0.0766 
    122 H122       30.9378    2.8173  -12.7658 H         1 UNK         0.0812 
    123 H123       31.8199    3.9977  -11.8107 H         1 UNK         0.0812 
    124 H124       30.0728    4.1088  -11.9325 H         1 UNK         0.0812 
    125 H125       30.8174    0.3350   -9.1882 H         1 UNK         0.3205 
    126 H126       33.3784   -0.7092  -10.1533 H         1 UNK         0.0754 
    127 H127       32.9210   -2.5592   -8.6017 H         1 UNK         0.0769 
    128 H128       31.4551   -2.2095   -9.5086 H         1 UNK         0.0769 
    129 H129       31.6198   -1.6605   -7.8404 H         1 UNK         0.0769 
    130 H130       32.1557    0.9900   -7.2747 H         1 UNK         0.2981 
    131 H131       34.8109    1.8775   -6.5505 H         1 UNK         0.0541 
    132 H132       32.1450    3.1238   -7.4297 H         1 UNK         0.3459 
    133 H133       31.8841    4.3112   -6.1828 H         1 UNK         0.3459 
    134 H134       34.7024    1.0709   -4.1669 H         1 UNK         0.0612 
    135 H135       34.9487   -0.1707   -5.3511 H         1 UNK         0.0612 
    136 H136       34.1842   -1.8791   -3.0857 H         1 UNK         0.0624 
    137 H137       34.1658   -2.2902   -4.7877 H         1 UNK         0.0624 
@<TRIPOS>BOND
     1    1    2 1    
     2    1   72 1    
     3    1   73 1    
     4    1   74 1    
     5    2    3 2    
     6    2    4 am   BACKBONE|DICT|INTERRES
     7    4    5 1    
     8    4   75 1    
     9    5    6 1    
    10    5   35 1    
    11    5   76 1    
    12    6    7 1    
    13    6   77 1    
    14    6   78 1    
    15    7    8 1    
    16    8    9 1    
    17    8   79 1    
    18    8   80 1    
    19    9   10 ar   
    20    9   14 ar   
    21   10   11 ar   
    22   10   81 1    
    23   11   12 ar   
    24   11   71 1    
    25   12   13 ar   
    26   12   82 1    
    27   13   14 ar   
    28   13   15 1    
    29   14   83 1    
    30   15   16 1    
    31   15   84 1    
    32   15   85 1    
    33   16   17 1    
    34   17   18 1    
    35   17   86 1    
    36   17   87 1    
    37   18   19 1    
    38   18   37 1    
    39   18   88 1    
    40   19   20 am   BACKBONE|DICT|INTERRES
    41   19   89 1    
    42   20   21 2    
    43   20   22 1    
    44   22   23 1    
    45   22   24 1    
    46   22   90 1    
    47   23   91 1    
    48   23   92 1    
    49   23   93 1    
    50   24   25 am   BACKBONE|DICT|INTERRES
    51   24   94 1    
    52   25   26 2    
    53   25   27 1    
    54   27   28 1    
    55   27   29 1    
    56   27   95 1    
    57   28   96 1    
    58   28   97 1    
    59   28   98 1    
    60   29   30 am   BACKBONE|DICT|INTERRES
    61   29   99 1    
    62   30   31 2    
    63   30   32 1    
    64   32   33 1    
    65   32   34 1    
    66   32  100 1    
    67   33  101 1    
    68   33  102 1    
    69   33  103 1    
    70   34   35 am   BACKBONE|DICT|INTERRES
    71   34  104 1    
    72   35   36 2    
    73   37   38 2    
    74   37   39 am   BACKBONE|DICT|INTERRES
    75   39   40 1    
    76   39  105 1    
    77   40   41 1    
    78   40   42 1    
    79   40  106 1    
    80   41  107 1    
    81   41  108 1    
    82   41  109 1    
    83   42   43 2    
    84   42   44 am   BACKBONE|DICT|INTERRES
    85   44   45 1    
    86   44  110 1    
    87   45   46 1    
    88   45   47 1    
    89   45  111 1    
    90   46  112 1    
    91   46  113 1    
    92   46  114 1    
    93   47   48 2    
    94   47   49 am   BACKBONE|DICT|INTERRES
    95   49   50 1    
    96   49  115 1    
    97   50   51 1    
    98   50   52 1    
    99   50  116 1    
   100   51  117 1    
   101   51  118 1    
   102   51  119 1    
   103   52   53 2    
   104   52   54 am   BACKBONE|DICT|INTERRES
   105   54   55 1    
   106   54  120 1    
   107   55   56 1    
   108   55   57 1    
   109   55  121 1    
   110   56  122 1    
   111   56  123 1    
   112   56  124 1    
   113   57   58 2    
   114   57   59 am   BACKBONE|DICT|INTERRES
   115   59   60 1    
   116   59  125 1    
   117   60   61 1    
   118   60   62 1    
   119   60  126 1    
   120   61  127 1    
   121   61  128 1    
   122   61  129 1    
   123   62   63 2    
   124   62   64 am   BACKBONE|DICT|INTERRES
   125   64   65 1    
   126   64  130 1    
   127   65   66 1    
   128   65   69 1    
   129   65  131 1    
   130   66   67 am   BACKBONE|DICT|INTERRES
   131   66   68 2    
   132   67  132 1    
   133   67  133 1    
   134   69   70 1    
   135   69  134 1    
   136   69  135 1    
   137   70   71 1    
   138   71  136 1    
   139   71  137 1    
@<TRIPOS>SUBSTRUCTURE
     1 UNK         1 GROUP             0       ****    0 ROOT    
