@<TRIPOS>MOLECULE
3R137
137   139    1
SMALL
USER_CHARGES


@<TRIPOS>ATOM
      1 CA         23.9798   -5.7936   -1.9388 C.3       0 UNK        -0.2020 
      2 C          25.2952   -5.8853   -2.7098 C.2       0 UNK         0.4855 
      3 O          25.3988   -6.7087   -3.6163 O.2       0 UNK        -0.5197 
      4 N          26.3294   -5.0922   -2.3920 N.am      1 UNK        -0.4892 
      5 CA         26.3800   -4.0241   -1.3831 C.3       1 UNK         0.0835 
      6 C6         27.8177   -3.4791   -1.1853 C.3       12 UNK        -0.0855 
      7 S7         28.9947   -4.8114   -0.7603 S.3       12 UNK        -0.2931 
      8 C8         30.6153   -4.0071   -1.0166 C.3       12 UNK         0.0378 
      9 C9         30.8652   -3.5108   -2.4403 C.ar      12 UNK        -0.0802 
     10 C10        31.5883   -2.3290   -2.6325 C.ar      12 UNK        -0.0944 
     11 C11        31.8359   -1.8306   -3.9152 C.ar      12 UNK        -0.0787 
     12 C12        31.3208   -2.5263   -5.0162 C.ar      12 UNK        -0.0862 
     13 C13        30.5938   -3.7084   -4.8469 C.ar      12 UNK        -0.0733 
     14 C14        30.3998   -4.2135   -3.5580 C.ar      12 UNK        -0.0832 
     15 C15        30.0347   -4.4283   -6.0711 C.3       12 UNK         0.0240 
     16 S16        28.2800   -4.9302   -5.9407 S.3       12 UNK        -0.2522 
     17 C17        27.4252   -3.4841   -5.2253 C.3       12 UNK        -0.0967 
     18 CA         27.0235   -2.3885   -6.2402 C.3       5 UNK         0.0660 
     19 N          25.8098   -1.6833   -5.8124 N.am      5 UNK        -0.4015 
     20 C          25.1453   -0.7967   -6.5690 C.2       4 UNK         0.4946 
     21 O          25.4526   -0.5151   -7.7272 O.2       4 UNK        -0.5353 
     22 CA         23.9711   -0.0592   -5.9076 C.3       4 UNK         0.0277 
     23 CB         22.7065   -0.9323   -5.9204 C.3       4 UNK        -0.1981 
     24 N          24.2544    0.3668   -4.5358 N.am      4 UNK        -0.4209 
     25 C          25.2503    1.1726   -4.1468 C.2       3 UNK         0.4942 
     26 O          26.0555    1.6719   -4.9310 O.2       3 UNK        -0.5208 
     27 CA         25.4150    1.4515   -2.6380 C.3       3 UNK         0.0250 
     28 CB         24.7447    2.7838   -2.2511 C.3       3 UNK        -0.1990 
     29 N          24.9955    0.3558   -1.7459 N.am      3 UNK        -0.4232 
     30 C          23.7683   -0.1559   -1.5664 C.2       2 UNK         0.4993 
     31 O          22.7626    0.2792   -2.1296 O.2       2 UNK        -0.5286 
     32 CA         23.6503   -1.3908   -0.6503 C.3       2 UNK         0.0209 
     33 CB         22.3712   -2.2056   -0.9432 C.3       2 UNK        -0.1931 
     34 N          24.8139   -2.2935   -0.6539 N.am      2 UNK        -0.4546 
     35 C          25.3935   -2.8820   -1.7126 C.2       1 UNK         0.5154 
     36 O          25.1737   -2.5770   -2.8899 O.2       1 UNK        -0.5181 
     37 C          28.1845   -1.4059   -6.4876 C.2       5 UNK         0.5014 
     38 O          28.8702   -1.5170   -7.5037 O.2       5 UNK        -0.5248 
     39 N          28.3584   -0.4416   -5.5709 N.am      6 UNK        -0.4434 
     40 CA         29.3877    0.5952   -5.6433 C.3       6 UNK         0.0363 
     41 CB         29.4465    1.3731   -4.3193 C.3       6 UNK        -0.1936 
     42 C          29.1954    1.5416   -6.8347 C.2       6 UNK         0.5081 
     43 O          30.1773    1.8943   -7.4881 O.2       6 UNK        -0.5248 
     44 N          27.9364    1.9015   -7.1152 N.am      7 UNK        -0.4718 
     45 CA         27.5324    2.6745   -8.2882 C.3       7 UNK         0.0273 
     46 CB         26.0642    3.1042   -8.1403 C.3       7 UNK        -0.1935 
     47 C          27.7519    1.9061   -9.6019 C.2       7 UNK         0.5018 
     48 O          28.2750    2.4870  -10.5527 O.2       7 UNK        -0.5186 
     49 N          27.3730    0.6189   -9.6272 N.am      8 UNK        -0.4240 
     50 CA         27.5402   -0.2753  -10.7769 C.3       8 UNK         0.0235 
     51 CB         26.7767   -1.5874  -10.5341 C.3       8 UNK        -0.2000 
     52 C          29.0136   -0.5584  -11.1127 C.2       8 UNK         0.4941 
     53 O          29.3870   -0.4987  -12.2849 O.2       8 UNK        -0.5273 
     54 N          29.8244   -0.8474  -10.0856 N.am      9 UNK        -0.4262 
     55 CA         31.2659   -1.0825  -10.2114 C.3       9 UNK         0.0264 
     56 CB         31.7665   -1.8034   -8.9524 C.3       9 UNK        -0.1955 
     57 C          32.0811    0.2029  -10.4366 C.2       9 UNK         0.5031 
     58 O          33.2105    0.1094  -10.9196 O.2       9 UNK        -0.5390 
     59 N          31.5080    1.3590  -10.0701 N.am      10 UNK        -0.4204 
     60 CA         32.1060    2.6964  -10.0634 C.3       10 UNK         0.0237 
     61 CB         32.4547    3.1653  -11.4926 C.3       10 UNK        -0.1985 
     62 C          33.2881    2.7779   -9.0802 C.2       10 UNK         0.4970 
     63 O          34.3987    3.1411   -9.4735 O.2       10 UNK        -0.4914 
     64 N          33.0208    2.4258   -7.8147 N.am      11 UNK        -0.4285 
     65 CA         33.9978    2.4684   -6.7109 C.3       11 UNK         0.1007 
     66 C          34.4748    3.8991   -6.3200 C.2       11 UNK         0.5703 
     67 N          33.7601    4.9609   -6.6752 N.am      11 UNK        -0.7361 
     68 O          35.5160    4.0458   -5.6839 O.2       11 UNK        -0.4986 
     69 C69        33.4940    1.7172   -5.4506 C.3       12 UNK        -0.0947 
     70 S70        33.1496   -0.0494   -5.7299 S.3       12 UNK        -0.2240 
     71 C71        32.6295   -0.5259   -4.0419 C.3       12 UNK         0.0194 
     72 H72        23.4124   -6.7172   -2.0516 H         1 UNK         0.0906 
     73 H73        24.1364   -5.6402   -0.8723 H         1 UNK         0.0906 
     74 H74        23.3681   -4.9799   -2.3271 H         1 UNK         0.0906 
     75 H75        27.1847   -5.2094   -2.9145 H         1 UNK         0.3140 
     76 H76        26.0727   -4.4703   -0.4352 H         1 UNK         0.1085 
     77 H77        28.1610   -2.9629   -2.0822 H         1 UNK         0.0836 
     78 H78        27.8430   -2.7404   -0.3817 H         1 UNK         0.0836 
     79 H79        30.6988   -3.1818   -0.3076 H         1 UNK         0.0731 
     80 H80        31.4009   -4.7175   -0.7563 H         1 UNK         0.0731 
     81 H81        31.9635   -1.7885   -1.7737 H         1 UNK         0.1312 
     82 H82        31.4717   -2.1507   -6.0158 H         1 UNK         0.1406 
     83 H83        29.8564   -5.1390   -3.4275 H         1 UNK         0.1631 
     84 H84        30.6365   -5.3189   -6.2554 H         1 UNK         0.0717 
     85 H85        30.1386   -3.8072   -6.9607 H         1 UNK         0.0717 
     86 H86        27.9827   -3.0755   -4.3831 H         1 UNK         0.0934 
     87 H87        26.5157   -3.8984   -4.7915 H         1 UNK         0.0934 
     88 H88        26.7873   -2.8674   -7.1930 H         1 UNK         0.0739 
     89 H89        25.4837   -1.8641   -4.8679 H         1 UNK         0.3093 
     90 H90        23.7752    0.8403   -6.4948 H         1 UNK         0.0818 
     91 H91        21.8430   -0.3837   -5.5437 H         1 UNK         0.0819 
     92 H92        22.4661   -1.2574   -6.9337 H         1 UNK         0.0819 
     93 H93        22.8268   -1.8274   -5.3083 H         1 UNK         0.0819 
     94 H94        23.6100    0.0608   -3.8119 H         1 UNK         0.3041 
     95 H95        26.4867    1.5678   -2.4690 H         1 UNK         0.0784 
     96 H96        25.1450    3.6060   -2.8460 H         1 UNK         0.0793 
     97 H97        23.6669    2.7632   -2.4150 H         1 UNK         0.0793 
     98 H98        24.9206    3.0270   -1.2033 H         1 UNK         0.0793 
     99 H99        25.7493   -0.1049   -1.2555 H         1 UNK         0.3024 
    100 H100       23.5649   -0.9963    0.3638 H         1 UNK         0.1171 
    101 H101       22.2811   -3.0608   -0.2733 H         1 UNK         0.0786 
    102 H102       22.3592   -2.5793   -1.9679 H         1 UNK         0.0786 
    103 H103       21.4753   -1.5981   -0.8075 H         1 UNK         0.0786 
    104 H104       25.1205   -2.5805    0.2664 H         1 UNK         0.2977 
    105 H105       27.7120   -0.3838   -4.7991 H         1 UNK         0.3127 
    106 H106       30.3399    0.0895   -5.7883 H         1 UNK         0.0770 
    107 H107       28.5302    1.9318   -4.1317 H         1 UNK         0.0814 
    108 H108       30.2636    2.0947   -4.3307 H         1 UNK         0.0814 
    109 H109       29.6127    0.7065   -3.4730 H         1 UNK         0.0814 
    110 H110       27.2006    1.6221   -6.4706 H         1 UNK         0.2983 
    111 H111       28.1502    3.5747   -8.3235 H         1 UNK         0.0947 
    112 H112       25.7462    3.7080   -8.9913 H         1 UNK         0.0806 
    113 H113       25.9164    3.7041   -7.2421 H         1 UNK         0.0806 
    114 H114       25.3951    2.2453   -8.0798 H         1 UNK         0.0806 
    115 H115       26.9010    0.2312   -8.8140 H         1 UNK         0.3000 
    116 H116       27.0952    0.2178  -11.6438 H         1 UNK         0.0850 
    117 H117       26.8793   -2.2634  -11.3840 H         1 UNK         0.0810 
    118 H118       25.7114   -1.4044  -10.3922 H         1 UNK         0.0810 
    119 H119       27.1449   -2.1120   -9.6519 H         1 UNK         0.0810 
    120 H120       29.4254   -0.9440   -9.1516 H         1 UNK         0.3040 
    121 H121       31.4358   -1.7357  -11.0700 H         1 UNK         0.0766 
    122 H122       32.8352   -2.0133   -9.0142 H         1 UNK         0.0812 
    123 H123       31.6034   -1.1924   -8.0650 H         1 UNK         0.0812 
    124 H124       31.2545   -2.7544   -8.8098 H         1 UNK         0.0812 
    125 H125       30.5998    1.3017   -9.6259 H         1 UNK         0.3205 
    126 H126       31.3378    3.3693   -9.6790 H         1 UNK         0.0754 
    127 H127       32.7957    4.2012  -11.4886 H         1 UNK         0.0769 
    128 H128       31.5850    3.1122  -12.1477 H         1 UNK         0.0769 
    129 H129       33.2481    2.5655  -11.9393 H         1 UNK         0.0769 
    130 H130       32.0721    2.1474   -7.5770 H         1 UNK         0.2981 
    131 H131       34.8891    1.9462   -7.0637 H         1 UNK         0.0541 
    132 H132       32.9021    4.8509   -7.1907 H         1 UNK         0.3459 
    133 H133       34.0821    5.8808   -6.4190 H         1 UNK         0.3459 
    134 H134       32.5874    2.1919   -5.0721 H         1 UNK         0.0612 
    135 H135       34.2320    1.7787   -4.6482 H         1 UNK         0.0612 
    136 H136       33.5260   -0.5927   -3.4239 H         1 UNK         0.0624 
    137 H137       32.0262    0.2769   -3.6189 H         1 UNK         0.0624 
@<TRIPOS>BOND
     1    1    2 1    
     2    1   72 1    
     3    1   73 1    
     4    1   74 1    
     5    2    3 2    
     6    2    4 am   BACKBONE|DICT|INTERRES
     7    4    5 1    
     8    4   75 1    
     9    5    6 1    
    10    5   35 1    
    11    5   76 1    
    12    6    7 1    
    13    6   77 1    
    14    6   78 1    
    15    7    8 1    
    16    8    9 1    
    17    8   79 1    
    18    8   80 1    
    19    9   10 ar   
    20    9   14 ar   
    21   10   11 ar   
    22   10   81 1    
    23   11   12 ar   
    24   11   71 1    
    25   12   13 ar   
    26   12   82 1    
    27   13   14 ar   
    28   13   15 1    
    29   14   83 1    
    30   15   16 1    
    31   15   84 1    
    32   15   85 1    
    33   16   17 1    
    34   17   18 1    
    35   17   86 1    
    36   17   87 1    
    37   18   19 1    
    38   18   37 1    
    39   18   88 1    
    40   19   20 am   BACKBONE|DICT|INTERRES
    41   19   89 1    
    42   20   21 2    
    43   20   22 1    
    44   22   23 1    
    45   22   24 1    
    46   22   90 1    
    47   23   91 1    
    48   23   92 1    
    49   23   93 1    
    50   24   25 am   BACKBONE|DICT|INTERRES
    51   24   94 1    
    52   25   26 2    
    53   25   27 1    
    54   27   28 1    
    55   27   29 1    
    56   27   95 1    
    57   28   96 1    
    58   28   97 1    
    59   28   98 1    
    60   29   30 am   BACKBONE|DICT|INTERRES
    61   29   99 1    
    62   30   31 2    
    63   30   32 1    
    64   32   33 1    
    65   32   34 1    
    66   32  100 1    
    67   33  101 1    
    68   33  102 1    
    69   33  103 1    
    70   34   35 am   BACKBONE|DICT|INTERRES
    71   34  104 1    
    72   35   36 2    
    73   37   38 2    
    74   37   39 am   BACKBONE|DICT|INTERRES
    75   39   40 1    
    76   39  105 1    
    77   40   41 1    
    78   40   42 1    
    79   40  106 1    
    80   41  107 1    
    81   41  108 1    
    82   41  109 1    
    83   42   43 2    
    84   42   44 am   BACKBONE|DICT|INTERRES
    85   44   45 1    
    86   44  110 1    
    87   45   46 1    
    88   45   47 1    
    89   45  111 1    
    90   46  112 1    
    91   46  113 1    
    92   46  114 1    
    93   47   48 2    
    94   47   49 am   BACKBONE|DICT|INTERRES
    95   49   50 1    
    96   49  115 1    
    97   50   51 1    
    98   50   52 1    
    99   50  116 1    
   100   51  117 1    
   101   51  118 1    
   102   51  119 1    
   103   52   53 2    
   104   52   54 am   BACKBONE|DICT|INTERRES
   105   54   55 1    
   106   54  120 1    
   107   55   56 1    
   108   55   57 1    
   109   55  121 1    
   110   56  122 1    
   111   56  123 1    
   112   56  124 1    
   113   57   58 2    
   114   57   59 am   BACKBONE|DICT|INTERRES
   115   59   60 1    
   116   59  125 1    
   117   60   61 1    
   118   60   62 1    
   119   60  126 1    
   120   61  127 1    
   121   61  128 1    
   122   61  129 1    
   123   62   63 2    
   124   62   64 am   BACKBONE|DICT|INTERRES
   125   64   65 1    
   126   64  130 1    
   127   65   66 1    
   128   65   69 1    
   129   65  131 1    
   130   66   67 am   BACKBONE|DICT|INTERRES
   131   66   68 2    
   132   67  132 1    
   133   67  133 1    
   134   69   70 1    
   135   69  134 1    
   136   69  135 1    
   137   70   71 1    
   138   71  136 1    
   139   71  137 1    
@<TRIPOS>SUBSTRUCTURE
     1 UNK         1 GROUP             0       ****    0 ROOT    
