@<TRIPOS>MOLECULE
3R137
137   139    1
SMALL
USER_CHARGES


@<TRIPOS>ATOM
      1 CA         27.8939   -5.3189   -7.6391 C.3       0 UNK        -0.2020 
      2 C          27.3963   -5.1612   -6.2103 C.2       0 UNK         0.4855 
      3 O          26.1909   -5.0284   -5.9944 O.2       0 UNK        -0.5197 
      4 N          28.3183   -5.1707   -5.2369 N.am      1 UNK        -0.4892 
      5 CA         28.0706   -4.9973   -3.7994 C.3       1 UNK         0.0835 
      6 C6         29.4002   -5.0999   -3.0096 C.3       12 UNK        -0.0855 
      7 S7         29.1637   -5.1625   -1.1997 S.3       12 UNK        -0.2931 
      8 C8         30.7807   -4.5700   -0.5884 C.3       12 UNK         0.0378 
      9 C9         31.1332   -3.1634   -1.0644 C.ar      12 UNK        -0.0802 
     10 C10        32.3658   -2.9188   -1.6765 C.ar      12 UNK        -0.0944 
     11 C11        32.6992   -1.6370   -2.1265 C.ar      12 UNK        -0.0787 
     12 C12        31.7793   -0.5951   -1.9639 C.ar      12 UNK        -0.0862 
     13 C13        30.5442   -0.8168   -1.3424 C.ar      12 UNK        -0.0733 
     14 C14        30.2392   -2.1045   -0.8820 C.ar      12 UNK        -0.0832 
     15 C15        29.5756    0.3538   -1.1597 C.3       12 UNK         0.0240 
     16 S16        27.8149   -0.1324   -1.2266 S.3       12 UNK        -0.2522 
     17 C17        26.9652    1.3883   -1.7815 C.3       12 UNK        -0.0967 
     18 CA         27.4283    1.9438   -3.1586 C.3       5 UNK         0.0660 
     19 N          27.7825    0.8917   -4.1093 N.am      5 UNK        -0.4015 
     20 C          28.5096    1.0785   -5.2158 C.2       4 UNK         0.4946 
     21 O          28.9533    2.1686   -5.5713 O.2       4 UNK        -0.5353 
     22 CA         28.7634   -0.1644   -6.0782 C.3       4 UNK         0.0277 
     23 CB         29.9460   -0.9599   -5.5068 C.3       4 UNK        -0.1981 
     24 N          27.5655   -1.0041   -6.1557 N.am      4 UNK        -0.4209 
     25 C          26.4703   -0.6593   -6.8518 C.2       3 UNK         0.4942 
     26 O          26.4409    0.3063   -7.6156 O.2       3 UNK        -0.5208 
     27 CA         25.1819   -1.4783   -6.6466 C.3       3 UNK         0.0250 
     28 CB         24.9342   -2.4269   -7.8278 C.3       3 UNK        -0.1990 
     29 N          25.1645   -2.2335   -5.3911 N.am      3 UNK        -0.4232 
     30 C          25.0429   -1.6670   -4.1803 C.2       2 UNK         0.4993 
     31 O          24.8921   -0.4569   -4.0125 O.2       2 UNK        -0.5286 
     32 CA         25.1727   -2.5818   -2.9474 C.3       2 UNK         0.0209 
     33 CB         23.7870   -3.0611   -2.4887 C.3       2 UNK        -0.1931 
     34 N          26.0515   -3.7413   -3.1457 N.am      2 UNK        -0.4546 
     35 C          27.3335   -3.6677   -3.5322 C.2       1 UNK         0.5154 
     36 O          27.9089   -2.6040   -3.7569 O.2       1 UNK        -0.5181 
     37 C          26.3739    2.8950   -3.7567 C.2       5 UNK         0.5014 
     38 O          26.5171    4.1134   -3.6443 O.2       5 UNK        -0.5248 
     39 N          25.3306    2.3157   -4.3674 N.am      6 UNK        -0.4434 
     40 CA         24.1843    3.0406   -4.9101 C.3       6 UNK         0.0363 
     41 CB         22.9826    2.0868   -5.0144 C.3       6 UNK        -0.1936 
     42 C          24.4545    3.7070   -6.2677 C.2       6 UNK         0.5081 
     43 O          24.0505    4.8559   -6.4517 O.2       6 UNK        -0.5248 
     44 N          25.0738    2.9754   -7.2057 N.am      7 UNK        -0.4718 
     45 CA         25.1251    3.3551   -8.6238 C.3       7 UNK         0.0273 
     46 CB         24.2520    2.3655   -9.4186 C.3       7 UNK        -0.1935 
     47 C          26.5432    3.4107   -9.2132 C.2       7 UNK         0.5018 
     48 O          26.6728    3.7818  -10.3808 O.2       7 UNK        -0.5186 
     49 N          27.5698    3.0306   -8.4356 N.am      8 UNK        -0.4240 
     50 CA         28.9706    2.8683   -8.8573 C.3       8 UNK         0.0235 
     51 CB         29.6056    4.2284   -9.2196 C.3       8 UNK        -0.2000 
     52 C          29.1443    1.8048   -9.9620 C.2       8 UNK         0.4941 
     53 O          29.9981    1.9584  -10.8371 O.2       8 UNK        -0.5273 
     54 N          28.3281    0.7413   -9.9057 N.am      9 UNK        -0.4262 
     55 CA         28.2893   -0.3343  -10.9026 C.3       9 UNK         0.0264 
     56 CB         26.9660   -1.0997  -10.7479 C.3       9 UNK        -0.1955 
     57 C          29.4760   -1.3141  -10.8256 C.2       9 UNK         0.5031 
     58 O          29.6666   -2.0970  -11.7577 O.2       9 UNK        -0.5390 
     59 N          30.2319   -1.2784   -9.7244 N.am      10 UNK        -0.4204 
     60 CA         31.3701   -2.1389   -9.4218 C.3       10 UNK         0.0237 
     61 CB         30.8634   -3.5099   -8.9255 C.3       10 UNK        -0.1985 
     62 C          32.2368   -1.4382   -8.3660 C.2       10 UNK         0.4970 
     63 O          31.8994   -0.3308   -7.9401 O.2       10 UNK        -0.4914 
     64 N          33.3167   -2.1099   -7.9471 N.am      11 UNK        -0.4285 
     65 CA         34.1980   -1.7211   -6.8311 C.3       11 UNK         0.1007 
     66 C          35.0259   -0.4161   -7.0518 C.2       11 UNK         0.5703 
     67 N          35.1860    0.0583   -8.2816 N.am      11 UNK        -0.7361 
     68 O          35.5587    0.1606   -6.1066 O.2       11 UNK        -0.4986 
     69 C69        33.4531   -1.7713   -5.4610 C.3       12 UNK        -0.0947 
     70 S70        34.4799   -2.4658   -4.1261 S.3       12 UNK        -0.2240 
     71 C71        34.0740   -1.3642   -2.7316 C.3       12 UNK         0.0194 
     72 H72        27.2621   -6.0218   -8.1816 H         1 UNK         0.0906 
     73 H73        27.8616   -4.3615   -8.1580 H         1 UNK         0.0906 
     74 H74        28.9169   -5.6927   -7.6738 H         1 UNK         0.0906 
     75 H75        29.2903   -5.2664   -5.4934 H         1 UNK         0.3140 
     76 H76        27.4259   -5.8208   -3.4851 H         1 UNK         0.1085 
     77 H77        30.0566   -4.2681   -3.2729 H         1 UNK         0.0836 
     78 H78        29.9355   -6.0064   -3.2968 H         1 UNK         0.0836 
     79 H79        31.5478   -5.2844   -0.8917 H         1 UNK         0.0731 
     80 H80        30.7682   -4.5776    0.5022 H         1 UNK         0.0731 
     81 H81        33.0749   -3.7262   -1.7996 H         1 UNK         0.1312 
     82 H82        32.0340    0.3988   -2.3060 H         1 UNK         0.1406 
     83 H83        29.2949   -2.2965   -0.3921 H         1 UNK         0.1631 
     84 H84        29.7737    1.1001   -1.9282 H         1 UNK         0.0717 
     85 H85        29.7734    0.8347   -0.2012 H         1 UNK         0.0717 
     86 H86        25.9009    1.1433   -1.8023 H         1 UNK         0.0934 
     87 H87        27.0768    2.1542   -1.0119 H         1 UNK         0.0934 
     88 H88        28.3271    2.5402   -2.9891 H         1 UNK         0.0739 
     89 H89        27.4799   -0.0437   -3.8720 H         1 UNK         0.3093 
     90 H90        29.0284    0.1608   -7.0850 H         1 UNK         0.0818 
     91 H91        30.8559   -0.3657   -5.5709 H         1 UNK         0.0819 
     92 H92        29.8202   -1.2048   -4.4527 H         1 UNK         0.0819 
     93 H93        30.1130   -1.8870   -6.0533 H         1 UNK         0.0819 
     94 H94        27.5204   -1.7775   -5.4985 H         1 UNK         0.3041 
     95 H95        24.3538   -0.7673   -6.6168 H         1 UNK         0.0784 
     96 H96        24.7928   -1.8649   -8.7514 H         1 UNK         0.0793 
     97 H97        25.7675   -3.1114   -7.9820 H         1 UNK         0.0793 
     98 H98        24.0346   -3.0238   -7.6764 H         1 UNK         0.0793 
     99 H99        25.3311   -3.2339   -5.4539 H         1 UNK         0.3024 
    100 H100       25.6080   -1.9776   -2.1489 H         1 UNK         0.1171 
    101 H101       23.8488   -3.6202   -1.5549 H         1 UNK         0.0786 
    102 H102       23.1203   -2.2152   -2.3136 H         1 UNK         0.0786 
    103 H103       23.3135   -3.7008   -3.2347 H         1 UNK         0.0786 
    104 H104       25.6320   -4.6520   -3.0251 H         1 UNK         0.2977 
    105 H105       25.2601    1.2985   -4.3507 H         1 UNK         0.3127 
    106 H106       23.9173    3.8303   -4.2039 H         1 UNK         0.0770 
    107 H107       23.1819    1.2556   -5.6915 H         1 UNK         0.0814 
    108 H108       22.1005    2.6084   -5.3883 H         1 UNK         0.0814 
    109 H109       22.7237    1.6682   -4.0417 H         1 UNK         0.0814 
    110 H110       25.3919    2.0383   -6.9859 H         1 UNK         0.2983 
    111 H111       24.7093    4.3543   -8.7697 H         1 UNK         0.0947 
    112 H112       24.2238    2.6252  -10.4777 H         1 UNK         0.0806 
    113 H113       23.2227    2.3695   -9.0600 H         1 UNK         0.0806 
    114 H114       24.6285    1.3447   -9.3440 H         1 UNK         0.0806 
    115 H115       27.3637    2.7440   -7.4882 H         1 UNK         0.3000 
    116 H116       29.5181    2.4830   -7.9988 H         1 UNK         0.0850 
    117 H117       30.6777    4.1246   -9.3912 H         1 UNK         0.0810 
    118 H118       29.4769    4.9519   -8.4146 H         1 UNK         0.0810 
    119 H119       29.1731    4.6525  -10.1261 H         1 UNK         0.0810 
    120 H120       27.6452    0.6898   -9.1539 H         1 UNK         0.3040 
    121 H121       28.3059    0.1223  -11.8945 H         1 UNK         0.0766 
    122 H122       26.1066   -0.4302  -10.7904 H         1 UNK         0.0812 
    123 H123       26.9312   -1.6377   -9.8012 H         1 UNK         0.0812 
    124 H124       26.8447   -1.8356  -11.5438 H         1 UNK         0.0812 
    125 H125       30.0800   -0.5455   -9.0437 H         1 UNK         0.3205 
    126 H126       31.9720   -2.2683  -10.3236 H         1 UNK         0.0754 
    127 H127       31.6865   -4.2008   -8.7415 H         1 UNK         0.0769 
    128 H128       30.2130   -3.9843   -9.6606 H         1 UNK         0.0769 
    129 H129       30.3007   -3.4149   -7.9965 H         1 UNK         0.0769 
    130 H130       33.5363   -2.9950   -8.3803 H         1 UNK         0.2981 
    131 H131       34.9522   -2.5087   -6.8241 H         1 UNK         0.0541 
    132 H132       35.7290    0.8958   -8.4200 H         1 UNK         0.3459 
    133 H133       34.7596   -0.4041   -9.0680 H         1 UNK         0.3459 
    134 H134       32.5710   -2.4101   -5.5232 H         1 UNK         0.0612 
    135 H135       33.0863   -0.7834   -5.1798 H         1 UNK         0.0612 
    136 H136       34.8249   -1.5054   -1.9532 H         1 UNK         0.0624 
    137 H137       34.1649   -0.3268   -3.0575 H         1 UNK         0.0624 
@<TRIPOS>BOND
     1    1    2 1    
     2    1   72 1    
     3    1   73 1    
     4    1   74 1    
     5    2    3 2    
     6    2    4 am   BACKBONE|DICT|INTERRES
     7    4    5 1    
     8    4   75 1    
     9    5    6 1    
    10    5   35 1    
    11    5   76 1    
    12    6    7 1    
    13    6   77 1    
    14    6   78 1    
    15    7    8 1    
    16    8    9 1    
    17    8   79 1    
    18    8   80 1    
    19    9   10 ar   
    20    9   14 ar   
    21   10   11 ar   
    22   10   81 1    
    23   11   12 ar   
    24   11   71 1    
    25   12   13 ar   
    26   12   82 1    
    27   13   14 ar   
    28   13   15 1    
    29   14   83 1    
    30   15   16 1    
    31   15   84 1    
    32   15   85 1    
    33   16   17 1    
    34   17   18 1    
    35   17   86 1    
    36   17   87 1    
    37   18   19 1    
    38   18   37 1    
    39   18   88 1    
    40   19   20 am   BACKBONE|DICT|INTERRES
    41   19   89 1    
    42   20   21 2    
    43   20   22 1    
    44   22   23 1    
    45   22   24 1    
    46   22   90 1    
    47   23   91 1    
    48   23   92 1    
    49   23   93 1    
    50   24   25 am   BACKBONE|DICT|INTERRES
    51   24   94 1    
    52   25   26 2    
    53   25   27 1    
    54   27   28 1    
    55   27   29 1    
    56   27   95 1    
    57   28   96 1    
    58   28   97 1    
    59   28   98 1    
    60   29   30 am   BACKBONE|DICT|INTERRES
    61   29   99 1    
    62   30   31 2    
    63   30   32 1    
    64   32   33 1    
    65   32   34 1    
    66   32  100 1    
    67   33  101 1    
    68   33  102 1    
    69   33  103 1    
    70   34   35 am   BACKBONE|DICT|INTERRES
    71   34  104 1    
    72   35   36 2    
    73   37   38 2    
    74   37   39 am   BACKBONE|DICT|INTERRES
    75   39   40 1    
    76   39  105 1    
    77   40   41 1    
    78   40   42 1    
    79   40  106 1    
    80   41  107 1    
    81   41  108 1    
    82   41  109 1    
    83   42   43 2    
    84   42   44 am   BACKBONE|DICT|INTERRES
    85   44   45 1    
    86   44  110 1    
    87   45   46 1    
    88   45   47 1    
    89   45  111 1    
    90   46  112 1    
    91   46  113 1    
    92   46  114 1    
    93   47   48 2    
    94   47   49 am   BACKBONE|DICT|INTERRES
    95   49   50 1    
    96   49  115 1    
    97   50   51 1    
    98   50   52 1    
    99   50  116 1    
   100   51  117 1    
   101   51  118 1    
   102   51  119 1    
   103   52   53 2    
   104   52   54 am   BACKBONE|DICT|INTERRES
   105   54   55 1    
   106   54  120 1    
   107   55   56 1    
   108   55   57 1    
   109   55  121 1    
   110   56  122 1    
   111   56  123 1    
   112   56  124 1    
   113   57   58 2    
   114   57   59 am   BACKBONE|DICT|INTERRES
   115   59   60 1    
   116   59  125 1    
   117   60   61 1    
   118   60   62 1    
   119   60  126 1    
   120   61  127 1    
   121   61  128 1    
   122   61  129 1    
   123   62   63 2    
   124   62   64 am   BACKBONE|DICT|INTERRES
   125   64   65 1    
   126   64  130 1    
   127   65   66 1    
   128   65   69 1    
   129   65  131 1    
   130   66   67 am   BACKBONE|DICT|INTERRES
   131   66   68 2    
   132   67  132 1    
   133   67  133 1    
   134   69   70 1    
   135   69  134 1    
   136   69  135 1    
   137   70   71 1    
   138   71  136 1    
   139   71  137 1    
@<TRIPOS>SUBSTRUCTURE
     1 UNK         1 GROUP             0       ****    0 ROOT    
