@<TRIPOS>MOLECULE
3R137
137   139    1
SMALL
USER_CHARGES


@<TRIPOS>ATOM
      1 CA         24.4018   -6.2551   -4.6616 C.3       0 UNK        -0.2020 
      2 C          24.6474   -5.4508   -3.3945 C.2       0 UNK         0.4855 
      3 O          23.7218   -4.8266   -2.8744 O.2       0 UNK        -0.5197 
      4 N          25.8930   -5.4633   -2.9039 N.am      1 UNK        -0.4892 
      5 CA         26.3978   -4.7578   -1.7190 C.3       1 UNK         0.0835 
      6 C6         27.8981   -5.0808   -1.4437 C.3       12 UNK        -0.0855 
      7 S7         28.9405   -5.3184   -2.9355 S.3       12 UNK        -0.2931 
      8 C8         30.5487   -4.6313   -2.4286 C.3       12 UNK         0.0378 
      9 C9         30.6724   -3.1527   -2.7675 C.ar      12 UNK        -0.0802 
     10 C10        31.2183   -2.7496   -3.9915 C.ar      12 UNK        -0.0944 
     11 C11        31.3582   -1.3906   -4.2929 C.ar      12 UNK        -0.0787 
     12 C12        30.9419   -0.4324   -3.3644 C.ar      12 UNK        -0.0862 
     13 C13        30.3847   -0.8232   -2.1441 C.ar      12 UNK        -0.0733 
     14 C14        30.2623   -2.1842   -1.8486 C.ar      12 UNK        -0.0832 
     15 C15        29.9243    0.2140   -1.1311 C.3       12 UNK         0.0240 
     16 S16        28.1309    0.1047   -0.8462 S.3       12 UNK        -0.2522 
     17 C17        27.4537    1.4175   -1.9127 C.3       12 UNK        -0.0967 
     18 CA         27.7286    1.2863   -3.4345 C.3       5 UNK         0.0660 
     19 N          27.3965   -0.0271   -4.0071 N.am      5 UNK        -0.4015 
     20 C          27.6380   -0.3667   -5.2853 C.2       4 UNK         0.4946 
     21 O          28.2551    0.3476   -6.0716 O.2       4 UNK        -0.5353 
     22 CA         27.0354   -1.6758   -5.8152 C.3       4 UNK         0.0277 
     23 CB         27.9877   -2.8581   -5.5900 C.3       4 UNK        -0.1981 
     24 N          25.7252   -1.9447   -5.2220 N.am      4 UNK        -0.4209 
     25 C          24.6074   -1.2816   -5.5568 C.2       3 UNK         0.4942 
     26 O          24.5596   -0.4381   -6.4507 O.2       3 UNK        -0.5208 
     27 CA         23.3404   -1.5592   -4.7299 C.3       3 UNK         0.0250 
     28 CB         22.5256   -2.7076   -5.3428 C.3       3 UNK        -0.1990 
     29 N          23.6401   -1.8462   -3.3255 N.am      3 UNK        -0.4232 
     30 C          24.1272   -0.9313   -2.4733 C.2       2 UNK         0.4993 
     31 O          24.2931    0.2524   -2.7712 O.2       2 UNK        -0.5286 
     32 CA         24.5552   -1.4221   -1.0782 C.3       2 UNK         0.0209 
     33 CB         23.3892   -1.2984   -0.0851 C.3       2 UNK        -0.1931 
     34 N          25.0677   -2.7977   -1.0619 N.am      2 UNK        -0.4546 
     35 C          26.1073   -3.2433   -1.7839 C.2       1 UNK         0.5154 
     36 O          26.7685   -2.5216   -2.5285 O.2       1 UNK        -0.5181 
     37 C          27.0116    2.4304   -4.1827 C.2       5 UNK         0.5014 
     38 O          27.6419    3.4442   -4.4863 O.2       5 UNK        -0.5248 
     39 N          25.7143    2.2408   -4.4674 N.am      6 UNK        -0.4434 
     40 CA         24.8806    3.1823   -5.2150 C.3       6 UNK         0.0363 
     41 CB         23.4030    2.7791   -5.0819 C.3       6 UNK        -0.1936 
     42 C          25.2849    3.3044   -6.6949 C.2       6 UNK         0.5081 
     43 O          25.4083    4.4234   -7.1940 O.2       6 UNK        -0.5248 
     44 N          25.4692    2.1639   -7.3749 N.am      7 UNK        -0.4718 
     45 CA         25.8021    2.1042   -8.8026 C.3       7 UNK         0.0273 
     46 CB         25.4845    0.6986   -9.3381 C.3       7 UNK        -0.1935 
     47 C          27.2618    2.4652   -9.1241 C.2       7 UNK         0.5018 
     48 O          27.5373    2.8809  -10.2512 O.2       7 UNK        -0.5186 
     49 N          28.1710    2.2552   -8.1620 N.am      8 UNK        -0.4240 
     50 CA         29.6341    2.3252   -8.2491 C.3       8 UNK         0.0235 
     51 CB         30.1418    3.7143   -8.6864 C.3       8 UNK        -0.2000 
     52 C          30.2160    1.1903   -9.1066 C.2       8 UNK         0.4941 
     53 O          30.9687    0.3713   -8.5825 O.2       8 UNK        -0.5273 
     54 N          29.8422    1.1552  -10.3960 N.am      9 UNK        -0.4262 
     55 CA         30.1778    0.1352  -11.4005 C.3       9 UNK         0.0264 
     56 CB         29.3693   -1.1508  -11.1267 C.3       9 UNK        -0.1955 
     57 C          31.6933   -0.1289  -11.5205 C.2       9 UNK         0.5031 
     58 O          32.1206   -1.2853  -11.5383 O.2       9 UNK        -0.5390 
     59 N          32.4808    0.9574  -11.5351 N.am      10 UNK        -0.4204 
     60 CA         33.9512    1.0364  -11.4976 C.3       10 UNK         0.0237 
     61 CB         34.5975    0.3164  -12.6980 C.3       10 UNK        -0.1985 
     62 C          34.5847    0.5816  -10.1662 C.2       10 UNK         0.4970 
     63 O          35.5392    1.2189   -9.7187 O.2       10 UNK        -0.4914 
     64 N          34.0374   -0.4727   -9.5500 N.am      11 UNK        -0.4285 
     65 CA         34.4481   -1.0549   -8.2650 C.3       11 UNK         0.1007 
     66 C          35.8730   -1.6905   -8.3003 C.2       11 UNK         0.5703 
     67 N          36.4922   -1.9287   -7.1521 N.am      11 UNK        -0.7361 
     68 O          36.4070   -2.0203   -9.3586 O.2       11 UNK        -0.4986 
     69 C69        34.2007   -0.0673   -7.0835 C.3       12 UNK        -0.0947 
     70 S70        33.7779   -0.9002   -5.5164 S.3       12 UNK        -0.2240 
     71 C71        31.9618   -0.9497   -5.6169 C.3       12 UNK         0.0194 
     72 H72        25.1308   -7.0573   -4.7743 H         1 UNK         0.0906 
     73 H73        23.4097   -6.7052   -4.6381 H         1 UNK         0.0906 
     74 H74        24.4653   -5.6112   -5.5378 H         1 UNK         0.0906 
     75 H75        26.6138   -5.9604   -3.4101 H         1 UNK         0.3140 
     76 H76        25.8341   -5.1484   -0.8691 H         1 UNK         0.1085 
     77 H77        27.9558   -6.0127   -0.8791 H         1 UNK         0.0836 
     78 H78        28.3448   -4.3291   -0.7911 H         1 UNK         0.0836 
     79 H79        31.3373   -5.1881   -2.9371 H         1 UNK         0.0731 
     80 H80        30.7077   -4.7964   -1.3618 H         1 UNK         0.0731 
     81 H81        31.5409   -3.4929   -4.7077 H         1 UNK         0.1312 
     82 H82        31.0535    0.6177   -3.5959 H         1 UNK         0.1406 
     83 H83        29.8359   -2.4853   -0.9020 H         1 UNK         0.1631 
     84 H84        30.1950    1.2246   -1.4406 H         1 UNK         0.0717 
     85 H85        30.4396    0.0348   -0.1866 H         1 UNK         0.0717 
     86 H86        26.3803    1.4528   -1.7206 H         1 UNK         0.0934 
     87 H87        27.8442    2.3694   -1.5473 H         1 UNK         0.0934 
     88 H88        28.7971    1.4337   -3.5937 H         1 UNK         0.0739 
     89 H89        26.9799   -0.7147   -3.3869 H         1 UNK         0.3093 
     90 H90        26.9005   -1.5652   -6.8935 H         1 UNK         0.0818 
     91 H91        27.5497   -3.7993   -5.9213 H         1 UNK         0.0819 
     92 H92        28.2598   -2.9621   -4.5410 H         1 UNK         0.0819 
     93 H93        28.9157   -2.7145   -6.1449 H         1 UNK         0.0819 
     94 H94        25.7189   -2.5460   -4.4080 H         1 UNK         0.3041 
     95 H95        22.7240   -0.6581   -4.7620 H         1 UNK         0.0784 
     96 H96        22.2402   -2.4755   -6.3698 H         1 UNK         0.0793 
     97 H97        23.0903   -3.6384   -5.3659 H         1 UNK         0.0793 
     98 H98        21.6073   -2.8862   -4.7832 H         1 UNK         0.0793 
     99 H99        23.5555   -2.8117   -3.0193 H         1 UNK         0.3024 
    100 H100       25.3600   -0.7678   -0.7408 H         1 UNK         0.1171 
    101 H101       23.7035   -1.5447    0.9293 H         1 UNK         0.0786 
    102 H102       23.0026   -0.2783   -0.0634 H         1 UNK         0.0786 
    103 H103       22.5604   -1.9559   -0.3509 H         1 UNK         0.0786 
    104 H104       24.5373   -3.4653   -0.5202 H         1 UNK         0.2977 
    105 H105       25.2571    1.4060   -4.1112 H         1 UNK         0.3127 
    106 H106       25.0016    4.1667   -4.7578 H         1 UNK         0.0770 
    107 H107       23.2118    1.7925   -5.5046 H         1 UNK         0.0814 
    108 H108       22.7572    3.4877   -5.6022 H         1 UNK         0.0814 
    109 H109       23.0898    2.7602   -4.0378 H         1 UNK         0.0814 
    110 H110       25.2920    1.2757   -6.9108 H         1 UNK         0.2983 
    111 H111       25.1680    2.8193   -9.3316 H         1 UNK         0.0947 
    112 H112       26.0853   -0.0652   -8.8428 H         1 UNK         0.0806 
    113 H113       25.6871    0.6307  -10.4080 H         1 UNK         0.0806 
    114 H114       24.4344    0.4456   -9.1905 H         1 UNK         0.0806 
    115 H115       27.8444    1.8139   -7.3062 H         1 UNK         0.3000 
    116 H116       29.9908    2.1597   -7.2309 H         1 UNK         0.0850 
    117 H117       31.2307    3.7575   -8.6412 H         1 UNK         0.0810 
    118 H118       29.7594    4.4958   -8.0298 H         1 UNK         0.0810 
    119 H119       29.8520    3.9650   -9.7066 H         1 UNK         0.0810 
    120 H120       29.1780    1.8676  -10.6877 H         1 UNK         0.3040 
    121 H121       29.8577    0.5299  -12.3659 H         1 UNK         0.0766 
    122 H122       29.5266   -1.8892  -11.9138 H         1 UNK         0.0812 
    123 H123       28.2997   -0.9452  -11.0847 H         1 UNK         0.0812 
    124 H124       29.6583   -1.6133  -10.1820 H         1 UNK         0.0812 
    125 H125       32.0105    1.8504  -11.4768 H         1 UNK         0.3205 
    126 H126       34.1828    2.0981  -11.5978 H         1 UNK         0.0754 
    127 H127       35.6740    0.4911  -12.7196 H         1 UNK         0.0769 
    128 H128       34.1914    0.6769  -13.6431 H         1 UNK         0.0769 
    129 H129       34.4491   -0.7630  -12.6579 H         1 UNK         0.0769 
    130 H130       33.2803   -0.9464  -10.0333 H         1 UNK         0.2981 
    131 H131       33.7706   -1.9000   -8.1410 H         1 UNK         0.0541 
    132 H132       37.4047   -2.3565   -7.1587 H         1 UNK         0.3459 
    133 H133       36.0485   -1.6867   -6.2785 H         1 UNK         0.3459 
    134 H134       33.3854    0.6169   -7.3230 H         1 UNK         0.0612 
    135 H135       35.0708    0.5715   -6.9223 H         1 UNK         0.0612 
    136 H136       31.6579   -1.6268   -6.4166 H         1 UNK         0.0624 
    137 H137       31.5801    0.0363   -5.8872 H         1 UNK         0.0624 
@<TRIPOS>BOND
     1    1    2 1    
     2    1   72 1    
     3    1   73 1    
     4    1   74 1    
     5    2    3 2    
     6    2    4 am   BACKBONE|DICT|INTERRES
     7    4    5 1    
     8    4   75 1    
     9    5    6 1    
    10    5   35 1    
    11    5   76 1    
    12    6    7 1    
    13    6   77 1    
    14    6   78 1    
    15    7    8 1    
    16    8    9 1    
    17    8   79 1    
    18    8   80 1    
    19    9   10 ar   
    20    9   14 ar   
    21   10   11 ar   
    22   10   81 1    
    23   11   12 ar   
    24   11   71 1    
    25   12   13 ar   
    26   12   82 1    
    27   13   14 ar   
    28   13   15 1    
    29   14   83 1    
    30   15   16 1    
    31   15   84 1    
    32   15   85 1    
    33   16   17 1    
    34   17   18 1    
    35   17   86 1    
    36   17   87 1    
    37   18   19 1    
    38   18   37 1    
    39   18   88 1    
    40   19   20 am   BACKBONE|DICT|INTERRES
    41   19   89 1    
    42   20   21 2    
    43   20   22 1    
    44   22   23 1    
    45   22   24 1    
    46   22   90 1    
    47   23   91 1    
    48   23   92 1    
    49   23   93 1    
    50   24   25 am   BACKBONE|DICT|INTERRES
    51   24   94 1    
    52   25   26 2    
    53   25   27 1    
    54   27   28 1    
    55   27   29 1    
    56   27   95 1    
    57   28   96 1    
    58   28   97 1    
    59   28   98 1    
    60   29   30 am   BACKBONE|DICT|INTERRES
    61   29   99 1    
    62   30   31 2    
    63   30   32 1    
    64   32   33 1    
    65   32   34 1    
    66   32  100 1    
    67   33  101 1    
    68   33  102 1    
    69   33  103 1    
    70   34   35 am   BACKBONE|DICT|INTERRES
    71   34  104 1    
    72   35   36 2    
    73   37   38 2    
    74   37   39 am   BACKBONE|DICT|INTERRES
    75   39   40 1    
    76   39  105 1    
    77   40   41 1    
    78   40   42 1    
    79   40  106 1    
    80   41  107 1    
    81   41  108 1    
    82   41  109 1    
    83   42   43 2    
    84   42   44 am   BACKBONE|DICT|INTERRES
    85   44   45 1    
    86   44  110 1    
    87   45   46 1    
    88   45   47 1    
    89   45  111 1    
    90   46  112 1    
    91   46  113 1    
    92   46  114 1    
    93   47   48 2    
    94   47   49 am   BACKBONE|DICT|INTERRES
    95   49   50 1    
    96   49  115 1    
    97   50   51 1    
    98   50   52 1    
    99   50  116 1    
   100   51  117 1    
   101   51  118 1    
   102   51  119 1    
   103   52   53 2    
   104   52   54 am   BACKBONE|DICT|INTERRES
   105   54   55 1    
   106   54  120 1    
   107   55   56 1    
   108   55   57 1    
   109   55  121 1    
   110   56  122 1    
   111   56  123 1    
   112   56  124 1    
   113   57   58 2    
   114   57   59 am   BACKBONE|DICT|INTERRES
   115   59   60 1    
   116   59  125 1    
   117   60   61 1    
   118   60   62 1    
   119   60  126 1    
   120   61  127 1    
   121   61  128 1    
   122   61  129 1    
   123   62   63 2    
   124   62   64 am   BACKBONE|DICT|INTERRES
   125   64   65 1    
   126   64  130 1    
   127   65   66 1    
   128   65   69 1    
   129   65  131 1    
   130   66   67 am   BACKBONE|DICT|INTERRES
   131   66   68 2    
   132   67  132 1    
   133   67  133 1    
   134   69   70 1    
   135   69  134 1    
   136   69  135 1    
   137   70   71 1    
   138   71  136 1    
   139   71  137 1    
@<TRIPOS>SUBSTRUCTURE
     1 UNK         1 GROUP             0       ****    0 ROOT    
