@<TRIPOS>MOLECULE
3R137
137   139    1
SMALL
USER_CHARGES


@<TRIPOS>ATOM
      1 CA         31.0802   -5.9814   -6.2140 C.3       0 UNK        -0.2020 
      2 C          30.0776   -5.9549   -5.0701 C.2       0 UNK         0.4855 
      3 O          29.4768   -6.9848   -4.7627 O.2       0 UNK        -0.5197 
      4 N          29.8890   -4.7890   -4.4403 N.am      1 UNK        -0.4892 
      5 CA         28.9130   -4.5689   -3.3682 C.3       1 UNK         0.0835 
      6 C6         29.2364   -3.3048   -2.5340 C.3       12 UNK        -0.0855 
      7 S7         30.7623   -3.5037   -1.5548 S.3       12 UNK        -0.2931 
      8 C8         30.7831   -1.9566   -0.5947 C.3       12 UNK         0.0378 
      9 C9         31.2163   -0.7768   -1.4510 C.ar      12 UNK        -0.0802 
     10 C10        32.5765   -0.5102   -1.6422 C.ar      12 UNK        -0.0944 
     11 C11        32.9811    0.5440   -2.4672 C.ar      12 UNK        -0.0787 
     12 C12        32.0168    1.3555   -3.0693 C.ar      12 UNK        -0.0862 
     13 C13        30.6573    1.0960   -2.8871 C.ar      12 UNK        -0.0733 
     14 C14        30.2597    0.0328   -2.0716 C.ar      12 UNK        -0.0832 
     15 C15        29.6259    1.9287   -3.6252 C.3       12 UNK         0.0240 
     16 S16        29.5133    1.3647   -5.3470 S.3       12 UNK        -0.2522 
     17 C17        28.0590    2.2790   -5.9430 C.3       12 UNK        -0.0967 
     18 CA         26.7943    1.3851   -5.8734 C.3       5 UNK         0.0660 
     19 N          26.2616    1.2355   -4.5170 N.am      5 UNK        -0.4015 
     20 C          25.6681    2.1699   -3.7604 C.2       4 UNK         0.4946 
     21 O          25.5386    3.3473   -4.0994 O.2       4 UNK        -0.5353 
     22 CA         25.1095    1.6991   -2.3990 C.3       4 UNK         0.0277 
     23 CB         24.1769    2.7386   -1.7484 C.3       4 UNK        -0.1981 
     24 N          24.3906    0.4265   -2.5198 N.am      4 UNK        -0.4209 
     25 C          24.9677   -0.7808   -2.5540 C.2       3 UNK         0.4942 
     26 O          26.1783   -0.9508   -2.3889 O.2       3 UNK        -0.5208 
     27 CA         24.0753   -1.9914   -2.8953 C.3       3 UNK         0.0250 
     28 CB         22.6629   -1.6198   -3.4052 C.3       3 UNK        -0.1990 
     29 N          24.7510   -2.8778   -3.8494 N.am      3 UNK        -0.4232 
     30 C          25.1975   -2.5621   -5.0736 C.2       2 UNK         0.4993 
     31 O          25.0081   -1.4694   -5.6130 O.2       2 UNK        -0.5286 
     32 CA         26.0437   -3.6333   -5.7891 C.3       2 UNK         0.0209 
     33 CB         26.3210   -3.2663   -7.2602 C.3       2 UNK        -0.1931 
     34 N          27.3228   -3.8565   -5.1054 N.am      2 UNK        -0.4546 
     35 C          27.4824   -4.4912   -3.9333 C.2       1 UNK         0.5154 
     36 O          26.5538   -5.0074   -3.3075 O.2       1 UNK        -0.5181 
     37 C          25.6905    1.7836   -6.8718 C.2       5 UNK         0.5014 
     38 O          25.7756    2.8213   -7.5317 O.2       5 UNK        -0.5248 
     39 N          24.6886    0.9026   -7.0017 N.am      6 UNK        -0.4434 
     40 CA         23.6455    0.9603   -8.0314 C.3       6 UNK         0.0363 
     41 CB         22.5784   -0.1026   -7.7262 C.3       6 UNK        -0.1936 
     42 C          24.2075    0.7718   -9.4546 C.2       6 UNK         0.5081 
     43 O          23.6262    1.2794  -10.4126 O.2       6 UNK        -0.5248 
     44 N          25.3564    0.0890   -9.5568 N.am      7 UNK        -0.4718 
     45 CA         26.1572   -0.0857  -10.7710 C.3       7 UNK         0.0273 
     46 CB         26.8577   -1.4549  -10.6940 C.3       7 UNK        -0.1935 
     47 C          27.1683    1.0625  -10.9934 C.2       7 UNK         0.5018 
     48 O          28.1693    0.8579  -11.6807 O.2       7 UNK        -0.5186 
     49 N          26.9199    2.2356  -10.3909 N.am      8 UNK        -0.4240 
     50 CA         27.7019    3.4818  -10.4121 C.3       8 UNK         0.0235 
     51 CB         27.9335    4.0019  -11.8448 C.3       8 UNK        -0.2000 
     52 C          29.0161    3.4211   -9.6145 C.2       8 UNK         0.4941 
     53 O          29.3004    4.3566   -8.8659 O.2       8 UNK        -0.5273 
     54 N          29.7749    2.3302   -9.7525 N.am      9 UNK        -0.4262 
     55 CA         30.9786    2.0299   -8.9840 C.3       9 UNK         0.0264 
     56 CB         32.1863    2.8172   -9.5278 C.3       9 UNK        -0.1955 
     57 C          31.2110    0.5194   -9.0608 C.2       9 UNK         0.5031 
     58 O          31.4217    0.0023  -10.1600 O.2       9 UNK        -0.5390 
     59 N          31.1549   -0.1622   -7.9122 N.am      10 UNK        -0.4204 
     60 CA         31.3117   -1.6095   -7.8010 C.3       10 UNK         0.0237 
     61 CB         30.0176   -2.3232   -8.2461 C.3       10 UNK        -0.1985 
     62 C          31.7089   -1.9628   -6.3649 C.2       10 UNK         0.4970 
     63 O          30.8691   -2.4436   -5.6022 O.2       10 UNK        -0.4914 
     64 N          32.9761   -1.7141   -6.0158 N.am      11 UNK        -0.4285 
     65 CA         33.5623   -2.1394   -4.7366 C.3       11 UNK         0.1007 
     66 C          33.7291   -3.6817   -4.6797 C.2       11 UNK         0.5703 
     67 N          33.2617   -4.3306   -3.6237 N.am      11 UNK        -0.7361 
     68 O          34.3093   -4.2881   -5.5782 O.2       11 UNK        -0.4986 
     69 C69        34.9192   -1.4454   -4.4395 C.3       12 UNK        -0.0947 
     70 S70        34.8612    0.3774   -4.4843 S.3       12 UNK        -0.2240 
     71 C71        34.4536    0.7891   -2.7556 C.3       12 UNK         0.0194 
     72 H72        31.4964   -4.9961   -6.4168 H         1 UNK         0.0906 
     73 H73        30.6020   -6.3396   -7.1251 H         1 UNK         0.0906 
     74 H74        31.9051   -6.6516   -5.9740 H         1 UNK         0.0906 
     75 H75        30.3869   -3.9571   -4.7561 H         1 UNK         0.3140 
     76 H76        28.9397   -5.4319   -2.6987 H         1 UNK         0.1085 
     77 H77        29.3379   -2.4340   -3.1846 H         1 UNK         0.0836 
     78 H78        28.4219   -3.0795   -1.8416 H         1 UNK         0.0836 
     79 H79        31.4716   -2.0719    0.2437 H         1 UNK         0.0731 
     80 H80        29.7995   -1.7779   -0.1572 H         1 UNK         0.0731 
     81 H81        33.3178   -1.1472   -1.1791 H         1 UNK         0.1312 
     82 H82        32.3260    2.1614   -3.7211 H         1 UNK         0.1406 
     83 H83        29.2069   -0.1825   -1.9436 H         1 UNK         0.1631 
     84 H84        29.9020    2.9839   -3.6004 H         1 UNK         0.0717 
     85 H85        28.6531    1.8455   -3.1401 H         1 UNK         0.0717 
     86 H86        27.9305    3.2135   -5.3948 H         1 UNK         0.0934 
     87 H87        28.2798    2.5639   -6.9712 H         1 UNK         0.0934 
     88 H88        27.0888    0.3804   -6.1835 H         1 UNK         0.0739 
     89 H89        26.3081    0.2979   -4.1352 H         1 UNK         0.3093 
     90 H90        25.9661    1.5630   -1.7350 H         1 UNK         0.0818 
     91 H91        23.8139    2.3952   -0.7796 H         1 UNK         0.0819 
     92 H92        23.3109    2.9530   -2.3758 H         1 UNK         0.0819 
     93 H93        24.6987    3.6816   -1.5789 H         1 UNK         0.0819 
     94 H94        23.3995    0.4860   -2.7050 H         1 UNK         0.3041 
     95 H95        23.9621   -2.5591   -1.9707 H         1 UNK         0.0784 
     96 H96        22.0902   -1.0900   -2.6431 H         1 UNK         0.0793 
     97 H97        22.6975   -0.9919   -4.2966 H         1 UNK         0.0793 
     98 H98        22.0938   -2.5142   -3.6591 H         1 UNK         0.0793 
     99 H99        25.0690   -3.7668   -3.4728 H         1 UNK         0.3024 
    100 H100       25.4730   -4.5648   -5.7763 H         1 UNK         0.1171 
    101 H101       25.3885   -3.1505   -7.8143 H         1 UNK         0.0786 
    102 H102       26.8662   -2.3265   -7.3459 H         1 UNK         0.0786 
    103 H103       26.9017   -4.0400   -7.7628 H         1 UNK         0.0786 
    104 H104       28.1438   -3.4544   -5.5354 H         1 UNK         0.2977 
    105 H105       24.7157    0.0557   -6.4293 H         1 UNK         0.3127 
    106 H106       23.1783    1.9462   -7.9862 H         1 UNK         0.0770 
    107 H107       22.9980   -1.1096   -7.7358 H         1 UNK         0.0814 
    108 H108       21.7760   -0.0746   -8.4647 H         1 UNK         0.0814 
    109 H109       22.1251    0.0607   -6.7484 H         1 UNK         0.0814 
    110 H110       25.7473   -0.2892   -8.7066 H         1 UNK         0.2983 
    111 H111       25.4940   -0.0938  -11.6388 H         1 UNK         0.0947 
    112 H112       27.5657   -1.4962   -9.8665 H         1 UNK         0.0806 
    113 H113       27.4116   -1.6688  -11.6091 H         1 UNK         0.0806 
    114 H114       26.1380   -2.2627  -10.5602 H         1 UNK         0.0806 
    115 H115       26.1029    2.2747   -9.7945 H         1 UNK         0.3000 
    116 H116       27.0727    4.2145   -9.9034 H         1 UNK         0.0850 
    117 H117       28.4018    4.9869  -11.8267 H         1 UNK         0.0810 
    118 H118       26.9936    4.1000  -12.3881 H         1 UNK         0.0810 
    119 H119       28.5879    3.3467  -12.4202 H         1 UNK         0.0810 
    120 H120       29.4751    1.6130  -10.4100 H         1 UNK         0.3040 
    121 H121       30.8155    2.3153   -7.9428 H         1 UNK         0.0766 
    122 H122       33.0954    2.5615   -8.9821 H         1 UNK         0.0812 
    123 H123       32.0401    3.8926   -9.4261 H         1 UNK         0.0812 
    124 H124       32.3652    2.6025  -10.5821 H         1 UNK         0.0812 
    125 H125       30.9680    0.3276   -7.0445 H         1 UNK         0.3205 
    126 H126       32.1252   -1.9370   -8.4523 H         1 UNK         0.0754 
    127 H127       29.1536   -1.9579   -7.6918 H         1 UNK         0.0769 
    128 H128       30.0836   -3.3998   -8.0843 H         1 UNK         0.0769 
    129 H129       29.8263   -2.1701   -9.3080 H         1 UNK         0.0769 
    130 H130       33.6130   -1.3140   -6.6882 H         1 UNK         0.2981 
    131 H131       32.8589   -1.8525   -3.9554 H         1 UNK         0.0541 
    132 H132       32.7422   -3.8534   -2.9004 H         1 UNK         0.3459 
    133 H133       33.3871   -5.3283   -3.5695 H         1 UNK         0.3459 
    134 H134       35.6702   -1.7614   -5.1660 H         1 UNK         0.0612 
    135 H135       35.2976   -1.7567   -3.4641 H         1 UNK         0.0612 
    136 H136       34.6805    1.8419   -2.5824 H         1 UNK         0.0624 
    137 H137       35.0917    0.2210   -2.0771 H         1 UNK         0.0624 
@<TRIPOS>BOND
     1    1    2 1    
     2    1   72 1    
     3    1   73 1    
     4    1   74 1    
     5    2    3 2    
     6    2    4 am   BACKBONE|DICT|INTERRES
     7    4    5 1    
     8    4   75 1    
     9    5    6 1    
    10    5   35 1    
    11    5   76 1    
    12    6    7 1    
    13    6   77 1    
    14    6   78 1    
    15    7    8 1    
    16    8    9 1    
    17    8   79 1    
    18    8   80 1    
    19    9   10 ar   
    20    9   14 ar   
    21   10   11 ar   
    22   10   81 1    
    23   11   12 ar   
    24   11   71 1    
    25   12   13 ar   
    26   12   82 1    
    27   13   14 ar   
    28   13   15 1    
    29   14   83 1    
    30   15   16 1    
    31   15   84 1    
    32   15   85 1    
    33   16   17 1    
    34   17   18 1    
    35   17   86 1    
    36   17   87 1    
    37   18   19 1    
    38   18   37 1    
    39   18   88 1    
    40   19   20 am   BACKBONE|DICT|INTERRES
    41   19   89 1    
    42   20   21 2    
    43   20   22 1    
    44   22   23 1    
    45   22   24 1    
    46   22   90 1    
    47   23   91 1    
    48   23   92 1    
    49   23   93 1    
    50   24   25 am   BACKBONE|DICT|INTERRES
    51   24   94 1    
    52   25   26 2    
    53   25   27 1    
    54   27   28 1    
    55   27   29 1    
    56   27   95 1    
    57   28   96 1    
    58   28   97 1    
    59   28   98 1    
    60   29   30 am   BACKBONE|DICT|INTERRES
    61   29   99 1    
    62   30   31 2    
    63   30   32 1    
    64   32   33 1    
    65   32   34 1    
    66   32  100 1    
    67   33  101 1    
    68   33  102 1    
    69   33  103 1    
    70   34   35 am   BACKBONE|DICT|INTERRES
    71   34  104 1    
    72   35   36 2    
    73   37   38 2    
    74   37   39 am   BACKBONE|DICT|INTERRES
    75   39   40 1    
    76   39  105 1    
    77   40   41 1    
    78   40   42 1    
    79   40  106 1    
    80   41  107 1    
    81   41  108 1    
    82   41  109 1    
    83   42   43 2    
    84   42   44 am   BACKBONE|DICT|INTERRES
    85   44   45 1    
    86   44  110 1    
    87   45   46 1    
    88   45   47 1    
    89   45  111 1    
    90   46  112 1    
    91   46  113 1    
    92   46  114 1    
    93   47   48 2    
    94   47   49 am   BACKBONE|DICT|INTERRES
    95   49   50 1    
    96   49  115 1    
    97   50   51 1    
    98   50   52 1    
    99   50  116 1    
   100   51  117 1    
   101   51  118 1    
   102   51  119 1    
   103   52   53 2    
   104   52   54 am   BACKBONE|DICT|INTERRES
   105   54   55 1    
   106   54  120 1    
   107   55   56 1    
   108   55   57 1    
   109   55  121 1    
   110   56  122 1    
   111   56  123 1    
   112   56  124 1    
   113   57   58 2    
   114   57   59 am   BACKBONE|DICT|INTERRES
   115   59   60 1    
   116   59  125 1    
   117   60   61 1    
   118   60   62 1    
   119   60  126 1    
   120   61  127 1    
   121   61  128 1    
   122   61  129 1    
   123   62   63 2    
   124   62   64 am   BACKBONE|DICT|INTERRES
   125   64   65 1    
   126   64  130 1    
   127   65   66 1    
   128   65   69 1    
   129   65  131 1    
   130   66   67 am   BACKBONE|DICT|INTERRES
   131   66   68 2    
   132   67  132 1    
   133   67  133 1    
   134   69   70 1    
   135   69  134 1    
   136   69  135 1    
   137   70   71 1    
   138   71  136 1    
   139   71  137 1    
@<TRIPOS>SUBSTRUCTURE
     1 UNK         1 GROUP             0       ****    0 ROOT    
