@<TRIPOS>MOLECULE
3R137
137   139    1
SMALL
USER_CHARGES


@<TRIPOS>ATOM
      1 CA         23.9239   -5.5189   -0.8270 C.3       0 UNK        -0.2020 
      2 C          25.0197   -6.2569   -1.5939 C.2       0 UNK         0.4855 
      3 O          24.8154   -7.4095   -1.9702 O.2       0 UNK        -0.5197 
      4 N          26.1958   -5.6609   -1.8378 N.am      1 UNK        -0.4892 
      5 CA         26.5815   -4.2779   -1.5295 C.3       1 UNK         0.0835 
      6 C6         28.0895   -4.0488   -1.7695 C.3       12 UNK        -0.0855 
      7 S7         29.1189   -4.8507   -0.4969 S.3       12 UNK        -0.2931 
      8 C8         30.7254   -4.9942   -1.3567 C.3       12 UNK         0.0378 
      9 C9         31.1803   -3.7129   -2.0549 C.ar      12 UNK        -0.0802 
     10 C10        31.7449   -3.7904   -3.3328 C.ar      12 UNK        -0.0944 
     11 C11        32.1545   -2.6352   -4.0055 C.ar      12 UNK        -0.0787 
     12 C12        31.9953   -1.3964   -3.3824 C.ar      12 UNK        -0.0862 
     13 C13        31.4130   -1.2937   -2.1183 C.ar      12 UNK        -0.0733 
     14 C14        31.0320   -2.4591   -1.4479 C.ar      12 UNK        -0.0832 
     15 C15        31.1896    0.0726   -1.4825 C.3       12 UNK         0.0240 
     16 S16        29.7267    0.9228   -2.1729 S.3       12 UNK        -0.2522 
     17 C17        30.4267    1.7460   -3.6515 C.3       12 UNK        -0.0967 
     18 CA         29.6168    1.5831   -4.9696 C.3       5 UNK         0.0660 
     19 N          28.9913    0.2695   -5.1413 N.am      5 UNK        -0.4015 
     20 C          29.2092   -0.5638   -6.1692 C.2       4 UNK         0.4946 
     21 O          30.0492   -0.3910   -7.0556 O.2       4 UNK        -0.5353 
     22 CA         28.2693   -1.7778   -6.2781 C.3       4 UNK         0.0277 
     23 CB         28.7094   -2.8850   -5.3091 C.3       4 UNK        -0.1981 
     24 N          26.8596   -1.4594   -6.0307 N.am      4 UNK        -0.4209 
     25 C          26.1667   -0.4334   -6.5491 C.2       3 UNK         0.4942 
     26 O          26.6192    0.3661   -7.3701 O.2       3 UNK        -0.5208 
     27 CA         24.7383   -0.2165   -6.0252 C.3       3 UNK         0.0250 
     28 CB         23.7257   -0.8714   -6.9774 C.3       3 UNK        -0.1990 
     29 N          24.4863   -0.6866   -4.6572 N.am      3 UNK        -0.4232 
     30 C          25.2149   -0.4411   -3.5564 C.2       2 UNK         0.4993 
     31 O          26.2822    0.1780   -3.5550 O.2       2 UNK        -0.5286 
     32 CA         24.6703   -0.9926   -2.2265 C.3       2 UNK         0.0209 
     33 CB         23.1761   -1.3903   -2.2705 C.3       2 UNK        -0.1931 
     34 N          25.4761   -2.1074   -1.7170 N.am      2 UNK        -0.4546 
     35 C          25.7631   -3.2574   -2.3455 C.2       1 UNK         0.5154 
     36 O          25.4272   -3.5225   -3.5029 O.2       1 UNK        -0.5181 
     37 C          28.5903    2.7198   -5.1305 C.2       5 UNK         0.5014 
     38 O          28.9456    3.7407   -5.7194 O.2       5 UNK        -0.5248 
     39 N          27.3515    2.5600   -4.6339 N.am      6 UNK        -0.4434 
     40 CA         26.3460    3.6342   -4.5916 C.3       6 UNK         0.0363 
     41 CB         25.1489    3.2073   -3.7278 C.3       6 UNK        -0.1936 
     42 C          25.8666    4.1203   -5.9714 C.2       6 UNK         0.5081 
     43 O          25.5226    5.2948   -6.1053 O.2       6 UNK        -0.5248 
     44 N          25.8723    3.2268   -6.9675 N.am      7 UNK        -0.4718 
     45 CA         25.6075    3.5337   -8.3762 C.3       7 UNK         0.0273 
     46 CB         24.4407    2.6549   -8.8616 C.3       7 UNK        -0.1935 
     47 C          26.8635    3.3062   -9.2388 C.2       7 UNK         0.5018 
     48 O          26.7716    3.3913  -10.4640 O.2       7 UNK        -0.5186 
     49 N          27.9986    2.9977   -8.5896 N.am      8 UNK        -0.4240 
     50 CA         29.2899    2.5983   -9.1577 C.3       8 UNK         0.0235 
     51 CB         29.9859    3.8071   -9.8163 C.3       8 UNK        -0.2000 
     52 C          29.1945    1.3751  -10.0925 C.2       8 UNK         0.4941 
     53 O          29.8951    1.3226  -11.1053 O.2       8 UNK        -0.5273 
     54 N          28.3154    0.4181   -9.7549 N.am      9 UNK        -0.4262 
     55 CA         28.0105   -0.7487  -10.5878 C.3       9 UNK         0.0264 
     56 CB         26.7100   -1.4074  -10.0993 C.3       9 UNK        -0.1955 
     57 C          29.1466   -1.7834  -10.6704 C.2       9 UNK         0.5031 
     58 O          29.1482   -2.5785  -11.6121 O.2       9 UNK        -0.5390 
     59 N          30.0779   -1.7687   -9.7074 N.am      10 UNK        -0.4204 
     60 CA         31.2391   -2.6606   -9.6727 C.3       10 UNK         0.0237 
     61 CB         30.9722   -3.8277   -8.7070 C.3       10 UNK        -0.1985 
     62 C          32.5333   -1.9174   -9.3150 C.2       10 UNK         0.4970 
     63 O          33.5693   -2.2122   -9.9121 O.2       10 UNK        -0.4914 
     64 N          32.4626   -0.9789   -8.3651 N.am      11 UNK        -0.4285 
     65 CA         33.5916   -0.1760   -7.8870 C.3       11 UNK         0.1007 
     66 C          33.4267    1.2739   -8.4013 C.2       11 UNK         0.5703 
     67 N          34.3500    1.7577   -9.2208 N.am      11 UNK        -0.7361 
     68 O          32.4848    1.9730   -8.0373 O.2       11 UNK        -0.4986 
     69 C69        33.6739   -0.2155   -6.3395 C.3       12 UNK        -0.0947 
     70 S70        34.2516   -1.8315   -5.7078 S.3       12 UNK        -0.2240 
     71 C71        32.6902   -2.7315   -5.4303 C.3       12 UNK         0.0194 
     72 H72        23.1779   -6.2248   -0.4624 H         1 UNK         0.0906 
     73 H73        24.3187   -4.9909    0.0397 H         1 UNK         0.0906 
     74 H74        23.4148   -4.8061   -1.4751 H         1 UNK         0.0906 
     75 H75        26.8928   -6.1865   -2.3448 H         1 UNK         0.3140 
     76 H76        26.3782   -4.1016   -0.4713 H         1 UNK         0.1085 
     77 H77        28.3276   -2.9831   -1.7515 H         1 UNK         0.0836 
     78 H78        28.3816   -4.4121   -2.7566 H         1 UNK         0.0836 
     79 H79        30.6498   -5.8114   -2.0758 H         1 UNK         0.0731 
     80 H80        31.4866   -5.2900   -0.6338 H         1 UNK         0.0731 
     81 H81        31.8507   -4.7536   -3.8132 H         1 UNK         0.1312 
     82 H82        32.3179   -0.5068   -3.8903 H         1 UNK         0.1406 
     83 H83        30.5917   -2.3889   -0.4626 H         1 UNK         0.1631 
     84 H84        32.0777    0.6948   -1.6025 H         1 UNK         0.0717 
     85 H85        31.0453   -0.0369   -0.4067 H         1 UNK         0.0717 
     86 H86        30.5685    2.8009   -3.4061 H         1 UNK         0.0934 
     87 H87        31.4394    1.3917   -3.8210 H         1 UNK         0.0934 
     88 H88        30.3293    1.7344   -5.7844 H         1 UNK         0.0739 
     89 H89        28.2639    0.0346   -4.4760 H         1 UNK         0.3093 
     90 H90        28.3394   -2.1650   -7.2953 H         1 UNK         0.0818 
     91 H91        28.0536   -3.7540   -5.3679 H         1 UNK         0.0819 
     92 H92        28.7138   -2.5346   -4.2764 H         1 UNK         0.0819 
     93 H93        29.7170   -3.2293   -5.5371 H         1 UNK         0.0819 
     94 H94        26.3811   -2.0432   -5.3571 H         1 UNK         0.3041 
     95 H95        24.5563    0.8585   -6.0304 H         1 UNK         0.0784 
     96 H96        23.8828   -0.5453   -8.0066 H         1 UNK         0.0793 
     97 H97        23.8078   -1.9591   -6.9664 H         1 UNK         0.0793 
     98 H98        22.7018   -0.6083   -6.7113 H         1 UNK         0.0793 
     99 H99        23.6533   -1.2439   -4.5340 H         1 UNK         0.3024 
    100 H100       24.7715   -0.1771   -1.5080 H         1 UNK         0.1171 
    101 H101       22.8169   -1.6551   -1.2759 H         1 UNK         0.0786 
    102 H102       22.5560   -0.5630   -2.6193 H         1 UNK         0.0786 
    103 H103       22.9899   -2.2462   -2.9203 H         1 UNK         0.0786 
    104 H104       25.8514   -1.9667   -0.7888 H         1 UNK         0.2977 
    105 H105       27.0971    1.6913   -4.1662 H         1 UNK         0.3127 
    106 H106       26.8164    4.4890   -4.1004 H         1 UNK         0.0770 
    107 H107       24.5852    2.3966   -4.1874 H         1 UNK         0.0814 
    108 H108       24.4574    4.0391   -3.5873 H         1 UNK         0.0814 
    109 H109       25.4667    2.8808   -2.7375 H         1 UNK         0.0814 
    110 H110       26.1739    2.2765   -6.7803 H         1 UNK         0.2983 
    111 H111       25.3244    4.5813   -8.4981 H         1 UNK         0.0947 
    112 H112       24.1498    2.9186   -9.8792 H         1 UNK         0.0806 
    113 H113       23.5599    2.7782   -8.2314 H         1 UNK         0.0806 
    114 H114       24.7075    1.5980   -8.8653 H         1 UNK         0.0806 
    115 H115       27.9701    3.0317   -7.5791 H         1 UNK         0.3000 
    116 H116       29.9013    2.2811   -8.3125 H         1 UNK         0.0850 
    117 H117       30.9996    3.5507  -10.1272 H         1 UNK         0.0810 
    118 H118       30.0651    4.6436   -9.1221 H         1 UNK         0.0810 
    119 H119       29.4481    4.1508  -10.7005 H         1 UNK         0.0810 
    120 H120       27.7700    0.5246   -8.9024 H         1 UNK         0.3040 
    121 H121       27.8357   -0.3858  -11.6030 H         1 UNK         0.0766 
    122 H122       26.3996   -2.2031  -10.7777 H         1 UNK         0.0812 
    123 H123       25.8926   -0.6877  -10.0491 H         1 UNK         0.0812 
    124 H124       26.8267   -1.8538   -9.1127 H         1 UNK         0.0812 
    125 H125       30.0009   -1.0771   -8.9687 H         1 UNK         0.3205 
    126 H126       31.4066   -3.0841  -10.6655 H         1 UNK         0.0754 
    127 H127       30.6911   -3.4758   -7.7162 H         1 UNK         0.0769 
    128 H128       31.8549   -4.4592   -8.5964 H         1 UNK         0.0769 
    129 H129       30.1643   -4.4612   -9.0734 H         1 UNK         0.0769 
    130 H130       31.5742   -0.7629   -7.9176 H         1 UNK         0.2981 
    131 H131       34.5313   -0.5708   -8.2787 H         1 UNK         0.0541 
    132 H132       35.1289    1.1928   -9.5217 H         1 UNK         0.3459 
    133 H133       34.2599    2.7052   -9.5520 H         1 UNK         0.3459 
    134 H134       32.7063    0.0450   -5.9109 H         1 UNK         0.0612 
    135 H135       34.3791    0.5342   -5.9760 H         1 UNK         0.0612 
    136 H136       32.8545   -3.7746   -5.7042 H         1 UNK         0.0624 
    137 H137       31.9273   -2.3548   -6.1081 H         1 UNK         0.0624 
@<TRIPOS>BOND
     1    1    2 1    
     2    1   72 1    
     3    1   73 1    
     4    1   74 1    
     5    2    3 2    
     6    2    4 am   BACKBONE|DICT|INTERRES
     7    4    5 1    
     8    4   75 1    
     9    5    6 1    
    10    5   35 1    
    11    5   76 1    
    12    6    7 1    
    13    6   77 1    
    14    6   78 1    
    15    7    8 1    
    16    8    9 1    
    17    8   79 1    
    18    8   80 1    
    19    9   10 ar   
    20    9   14 ar   
    21   10   11 ar   
    22   10   81 1    
    23   11   12 ar   
    24   11   71 1    
    25   12   13 ar   
    26   12   82 1    
    27   13   14 ar   
    28   13   15 1    
    29   14   83 1    
    30   15   16 1    
    31   15   84 1    
    32   15   85 1    
    33   16   17 1    
    34   17   18 1    
    35   17   86 1    
    36   17   87 1    
    37   18   19 1    
    38   18   37 1    
    39   18   88 1    
    40   19   20 am   BACKBONE|DICT|INTERRES
    41   19   89 1    
    42   20   21 2    
    43   20   22 1    
    44   22   23 1    
    45   22   24 1    
    46   22   90 1    
    47   23   91 1    
    48   23   92 1    
    49   23   93 1    
    50   24   25 am   BACKBONE|DICT|INTERRES
    51   24   94 1    
    52   25   26 2    
    53   25   27 1    
    54   27   28 1    
    55   27   29 1    
    56   27   95 1    
    57   28   96 1    
    58   28   97 1    
    59   28   98 1    
    60   29   30 am   BACKBONE|DICT|INTERRES
    61   29   99 1    
    62   30   31 2    
    63   30   32 1    
    64   32   33 1    
    65   32   34 1    
    66   32  100 1    
    67   33  101 1    
    68   33  102 1    
    69   33  103 1    
    70   34   35 am   BACKBONE|DICT|INTERRES
    71   34  104 1    
    72   35   36 2    
    73   37   38 2    
    74   37   39 am   BACKBONE|DICT|INTERRES
    75   39   40 1    
    76   39  105 1    
    77   40   41 1    
    78   40   42 1    
    79   40  106 1    
    80   41  107 1    
    81   41  108 1    
    82   41  109 1    
    83   42   43 2    
    84   42   44 am   BACKBONE|DICT|INTERRES
    85   44   45 1    
    86   44  110 1    
    87   45   46 1    
    88   45   47 1    
    89   45  111 1    
    90   46  112 1    
    91   46  113 1    
    92   46  114 1    
    93   47   48 2    
    94   47   49 am   BACKBONE|DICT|INTERRES
    95   49   50 1    
    96   49  115 1    
    97   50   51 1    
    98   50   52 1    
    99   50  116 1    
   100   51  117 1    
   101   51  118 1    
   102   51  119 1    
   103   52   53 2    
   104   52   54 am   BACKBONE|DICT|INTERRES
   105   54   55 1    
   106   54  120 1    
   107   55   56 1    
   108   55   57 1    
   109   55  121 1    
   110   56  122 1    
   111   56  123 1    
   112   56  124 1    
   113   57   58 2    
   114   57   59 am   BACKBONE|DICT|INTERRES
   115   59   60 1    
   116   59  125 1    
   117   60   61 1    
   118   60   62 1    
   119   60  126 1    
   120   61  127 1    
   121   61  128 1    
   122   61  129 1    
   123   62   63 2    
   124   62   64 am   BACKBONE|DICT|INTERRES
   125   64   65 1    
   126   64  130 1    
   127   65   66 1    
   128   65   69 1    
   129   65  131 1    
   130   66   67 am   BACKBONE|DICT|INTERRES
   131   66   68 2    
   132   67  132 1    
   133   67  133 1    
   134   69   70 1    
   135   69  134 1    
   136   69  135 1    
   137   70   71 1    
   138   71  136 1    
   139   71  137 1    
@<TRIPOS>SUBSTRUCTURE
     1 UNK         1 GROUP             0       ****    0 ROOT    
