@<TRIPOS>MOLECULE
3R137
137   139    1
SMALL
USER_CHARGES


@<TRIPOS>ATOM
      1 CA         27.4643   -5.4598   -8.5868 C.3       0 UNK        -0.2020 
      2 C          26.9378   -5.4805   -7.1593 C.2       0 UNK         0.4855 
      3 O          26.0753   -6.2986   -6.8381 O.2       0 UNK        -0.5197 
      4 N          27.4659   -4.6043   -6.2969 N.am      1 UNK        -0.4892 
      5 CA         27.1064   -4.5081   -4.8790 C.3       1 UNK         0.0835 
      6 C6         28.1720   -3.7276   -4.0759 C.3       12 UNK        -0.0855 
      7 S7         29.7883   -4.5748   -4.0973 S.3       12 UNK        -0.2931 
      8 C8         30.5081   -4.0430   -2.5137 C.3       12 UNK         0.0378 
      9 C9         30.8381   -2.5568   -2.5068 C.ar      12 UNK        -0.0802 
     10 C10        32.0290   -2.0977   -3.0746 C.ar      12 UNK        -0.0944 
     11 C11        32.3611   -0.7404   -3.0305 C.ar      12 UNK        -0.0787 
     12 C12        31.4809    0.1612   -2.4221 C.ar      12 UNK        -0.0862 
     13 C13        30.2760   -0.2781   -1.8617 C.ar      12 UNK        -0.0733 
     14 C14        29.9701   -1.6453   -1.9008 C.ar      12 UNK        -0.0832 
     15 C15        29.3682    0.7364   -1.1631 C.3       12 UNK         0.0240 
     16 S16        27.6099    0.2500   -1.0576 S.3       12 UNK        -0.2522 
     17 C17        26.8726    0.9780   -2.5560 C.3       12 UNK        -0.0967 
     18 CA         26.9582    0.0535   -3.8137 C.3       5 UNK         0.0660 
     19 N          25.6876    0.0027   -4.5354 N.am      5 UNK        -0.4015 
     20 C          25.1073    1.0233   -5.1834 C.2       4 UNK         0.4946 
     21 O          25.6337    2.1257   -5.3447 O.2       4 UNK        -0.5353 
     22 CA         23.6788    0.7879   -5.7024 C.3       4 UNK         0.0277 
     23 CB         23.7026    0.1399   -7.0932 C.3       4 UNK        -0.1981 
     24 N          22.8832   -0.0447   -4.7967 N.am      4 UNK        -0.4209 
     25 C          22.5026    0.3092   -3.5594 C.2       3 UNK         0.4942 
     26 O          22.6877    1.4276   -3.0784 O.2       3 UNK        -0.5208 
     27 CA         21.8053   -0.7671   -2.7064 C.3       3 UNK         0.0250 
     28 CB         20.2794   -0.5843   -2.7515 C.3       3 UNK        -0.1990 
     29 N          22.1397   -2.1387   -3.1061 N.am      3 UNK        -0.4232 
     30 C          23.3451   -2.7082   -2.9615 C.2       2 UNK         0.4993 
     31 O          24.2994   -2.1475   -2.4183 O.2       2 UNK        -0.5286 
     32 CA         23.5047   -4.1437   -3.5066 C.3       2 UNK         0.0209 
     33 CB         22.6001   -4.4388   -4.7266 C.3       2 UNK        -0.1931 
     34 N          24.8978   -4.4932   -3.8205 N.am      2 UNK        -0.4546 
     35 C          25.7051   -3.8862   -4.7040 C.2       1 UNK         0.5154 
     36 O          25.3926   -2.8815   -5.3500 O.2       1 UNK        -0.5181 
     37 C          28.1053    0.3592   -4.8036 C.2       5 UNK         0.5014 
     38 O          28.2820   -0.3900   -5.7695 O.2       5 UNK        -0.5248 
     39 N          28.8236    1.4716   -4.5975 N.am      6 UNK        -0.4434 
     40 CA         29.9142    1.9498   -5.4464 C.3       6 UNK         0.0363 
     41 CB         30.5248    3.2194   -4.8337 C.3       6 UNK        -0.1936 
     42 C          29.5164    2.1987   -6.9101 C.2       6 UNK         0.5081 
     43 O          30.3528    2.0115   -7.7925 O.2       6 UNK        -0.5248 
     44 N          28.2511    2.5720   -7.1551 N.am      7 UNK        -0.4718 
     45 CA         27.7119    2.7947   -8.4998 C.3       7 UNK         0.0273 
     46 CB         26.3491    3.4982   -8.4014 C.3       7 UNK        -0.1935 
     47 C          27.5977    1.5061   -9.3335 C.2       7 UNK         0.5018 
     48 O          27.6708    1.5848  -10.5602 O.2       7 UNK        -0.5186 
     49 N          27.4336    0.3552   -8.6658 N.am      8 UNK        -0.4240 
     50 CA         27.4191   -0.9631   -9.3005 C.3       8 UNK         0.0235 
     51 CB         26.3662   -1.8520   -8.6270 C.3       8 UNK        -0.2000 
     52 C          28.8021   -1.6255   -9.2564 C.2       8 UNK         0.4941 
     53 O          29.1786   -2.2824  -10.2271 O.2       8 UNK        -0.5273 
     54 N          29.5363   -1.4492   -8.1469 N.am      9 UNK        -0.4262 
     55 CA         30.8891   -1.9847   -7.9635 C.3       9 UNK         0.0264 
     56 CB         31.2837   -1.8705   -6.4848 C.3       9 UNK        -0.1955 
     57 C          31.9507   -1.3122   -8.8548 C.2       9 UNK         0.5031 
     58 O          32.9441   -1.9602   -9.1862 O.2       9 UNK        -0.5390 
     59 N          31.7304   -0.0369   -9.2129 N.am      10 UNK        -0.4204 
     60 CA         32.5881    0.8300  -10.0336 C.3       10 UNK         0.0237 
     61 CB         32.7578    0.2653  -11.4605 C.3       10 UNK        -0.1985 
     62 C          33.9305    1.1926   -9.3650 C.2       10 UNK         0.4970 
     63 O          34.8797    1.5611  -10.0596 O.2       10 UNK        -0.4914 
     64 N          33.9833    1.0983   -8.0321 N.am      11 UNK        -0.4285 
     65 CA         35.1076    1.5174   -7.1872 C.3       11 UNK         0.1007 
     66 C          35.2242    3.0624   -7.0552 C.2       11 UNK         0.5703 
     67 N          36.3917    3.5612   -6.6706 N.am      11 UNK        -0.7361 
     68 O          34.2733    3.8110   -7.2767 O.2       11 UNK        -0.4986 
     69 C69        35.0706    0.8030   -5.8085 C.3       12 UNK        -0.0947 
     70 S70        33.4639    0.9317   -4.9538 S.3       12 UNK        -0.2240 
     71 C71        33.6901   -0.2634   -3.6031 C.3       12 UNK         0.0194 
     72 H72        27.9276   -6.4162   -8.8273 H         1 UNK         0.0906 
     73 H73        26.6470   -5.2942   -9.2881 H         1 UNK         0.0906 
     74 H74        28.2086   -4.6781   -8.7378 H         1 UNK         0.0906 
     75 H75        28.1653   -3.9471   -6.6086 H         1 UNK         0.3140 
     76 H76        27.0721   -5.5261   -4.4834 H         1 UNK         0.1085 
     77 H77        27.8511   -3.6034   -3.0398 H         1 UNK         0.0836 
     78 H78        28.3069   -2.7257   -4.4838 H         1 UNK         0.0836 
     79 H79        29.8274   -4.2940   -1.6987 H         1 UNK         0.0731 
     80 H80        31.4181   -4.6171   -2.3328 H         1 UNK         0.0731 
     81 H81        32.7036   -2.8047   -3.5379 H         1 UNK         0.1312 
     82 H82        31.7455    1.2085   -2.3763 H         1 UNK         0.1406 
     83 H83        29.0628   -2.0138   -1.4441 H         1 UNK         0.1631 
     84 H84        29.4464    1.7132   -1.6418 H         1 UNK         0.0717 
     85 H85        29.7401    0.8671   -0.1461 H         1 UNK         0.0717 
     86 H86        25.8227    1.1183   -2.2902 H         1 UNK         0.0934 
     87 H87        27.2295    1.9956   -2.7133 H         1 UNK         0.0934 
     88 H88        27.1187   -0.9694   -3.4736 H         1 UNK         0.0739 
     89 H89        25.2286   -0.9016   -4.5354 H         1 UNK         0.3093 
     90 H90        23.1944    1.7634   -5.7838 H         1 UNK         0.0818 
     91 H91        22.7083    0.1242   -7.5395 H         1 UNK         0.0819 
     92 H92        24.3556    0.6861   -7.7754 H         1 UNK         0.0819 
     93 H93        24.0610   -0.8882   -7.0407 H         1 UNK         0.0819 
     94 H94        22.6781   -0.9833   -5.1055 H         1 UNK         0.3041 
     95 H95        22.1364   -0.6278   -1.6749 H         1 UNK         0.0784 
     96 H96        19.9974    0.4197   -2.4308 H         1 UNK         0.0793 
     97 H97        19.8836   -0.7274   -3.7579 H         1 UNK         0.0793 
     98 H98        19.7749   -1.2868   -2.0878 H         1 UNK         0.0793 
     99 H99        21.4037   -2.6735   -3.5448 H         1 UNK         0.3024 
    100 H100       23.1993   -4.8066   -2.6952 H         1 UNK         0.1171 
    101 H101       22.7900   -5.4369   -5.1223 H         1 UNK         0.0786 
    102 H102       22.7661   -3.7288   -5.5380 H         1 UNK         0.0786 
    103 H103       21.5422   -4.4047   -4.4644 H         1 UNK         0.0786 
    104 H104       25.2651   -5.2817   -3.3062 H         1 UNK         0.2977 
    105 H105       28.5869    2.0524   -3.8085 H         1 UNK         0.3127 
    106 H106       30.6743    1.1715   -5.4469 H         1 UNK         0.0770 
    107 H107       29.8006    4.0332   -4.7820 H         1 UNK         0.0814 
    108 H108       31.3684    3.5696   -5.4310 H         1 UNK         0.0814 
    109 H109       30.9012    3.0361   -3.8277 H         1 UNK         0.0814 
    110 H110       27.6029    2.6588   -6.3806 H         1 UNK         0.2983 
    111 H111       28.3991    3.4605   -9.0271 H         1 UNK         0.0947 
    112 H112       25.9633    3.7385   -9.3930 H         1 UNK         0.0806 
    113 H113       26.4230    4.4342   -7.8476 H         1 UNK         0.0806 
    114 H114       25.6048    2.8739   -7.9074 H         1 UNK         0.0806 
    115 H115       27.4302    0.3773   -7.6532 H         1 UNK         0.3000 
    116 H116       27.1399   -0.8673  -10.3523 H         1 UNK         0.0850 
    117 H117       26.3927   -2.8639   -9.0285 H         1 UNK         0.0810 
    118 H118       25.3642   -1.4711   -8.8146 H         1 UNK         0.0810 
    119 H119       26.5155   -1.9167   -7.5487 H         1 UNK         0.0810 
    120 H120       29.1295   -0.9542   -7.3559 H         1 UNK         0.3040 
    121 H121       30.8654   -3.0448   -8.2250 H         1 UNK         0.0766 
    122 H122       32.2479   -2.3443   -6.2969 H         1 UNK         0.0812 
    123 H123       30.5521   -2.3522   -5.8380 H         1 UNK         0.0812 
    124 H124       31.3656   -0.8329   -6.1694 H         1 UNK         0.0812 
    125 H125       30.9295    0.4399   -8.8060 H         1 UNK         0.3205 
    126 H126       32.0456    1.7724  -10.1223 H         1 UNK         0.0754 
    127 H127       33.2455    0.9903  -12.1133 H         1 UNK         0.0769 
    128 H128       31.7934    0.0254  -11.9086 H         1 UNK         0.0769 
    129 H129       33.3669   -0.6390  -11.4697 H         1 UNK         0.0769 
    130 H130       33.1446    0.8385   -7.5355 H         1 UNK         0.2981 
    131 H131       36.0187    1.1881   -7.6908 H         1 UNK         0.0541 
    132 H132       37.1792    2.9614   -6.4800 H         1 UNK         0.3459 
    133 H133       36.4874    4.5597   -6.5709 H         1 UNK         0.3459 
    134 H134       35.8559    1.1742   -5.1477 H         1 UNK         0.0612 
    135 H135       35.2856   -0.2560   -5.9588 H         1 UNK         0.0612 
    136 H136       34.2693   -1.1126   -3.9686 H         1 UNK         0.0624 
    137 H137       34.2825    0.1988   -2.8125 H         1 UNK         0.0624 
@<TRIPOS>BOND
     1    1    2 1    
     2    1   72 1    
     3    1   73 1    
     4    1   74 1    
     5    2    3 2    
     6    2    4 am   BACKBONE|DICT|INTERRES
     7    4    5 1    
     8    4   75 1    
     9    5    6 1    
    10    5   35 1    
    11    5   76 1    
    12    6    7 1    
    13    6   77 1    
    14    6   78 1    
    15    7    8 1    
    16    8    9 1    
    17    8   79 1    
    18    8   80 1    
    19    9   10 ar   
    20    9   14 ar   
    21   10   11 ar   
    22   10   81 1    
    23   11   12 ar   
    24   11   71 1    
    25   12   13 ar   
    26   12   82 1    
    27   13   14 ar   
    28   13   15 1    
    29   14   83 1    
    30   15   16 1    
    31   15   84 1    
    32   15   85 1    
    33   16   17 1    
    34   17   18 1    
    35   17   86 1    
    36   17   87 1    
    37   18   19 1    
    38   18   37 1    
    39   18   88 1    
    40   19   20 am   BACKBONE|DICT|INTERRES
    41   19   89 1    
    42   20   21 2    
    43   20   22 1    
    44   22   23 1    
    45   22   24 1    
    46   22   90 1    
    47   23   91 1    
    48   23   92 1    
    49   23   93 1    
    50   24   25 am   BACKBONE|DICT|INTERRES
    51   24   94 1    
    52   25   26 2    
    53   25   27 1    
    54   27   28 1    
    55   27   29 1    
    56   27   95 1    
    57   28   96 1    
    58   28   97 1    
    59   28   98 1    
    60   29   30 am   BACKBONE|DICT|INTERRES
    61   29   99 1    
    62   30   31 2    
    63   30   32 1    
    64   32   33 1    
    65   32   34 1    
    66   32  100 1    
    67   33  101 1    
    68   33  102 1    
    69   33  103 1    
    70   34   35 am   BACKBONE|DICT|INTERRES
    71   34  104 1    
    72   35   36 2    
    73   37   38 2    
    74   37   39 am   BACKBONE|DICT|INTERRES
    75   39   40 1    
    76   39  105 1    
    77   40   41 1    
    78   40   42 1    
    79   40  106 1    
    80   41  107 1    
    81   41  108 1    
    82   41  109 1    
    83   42   43 2    
    84   42   44 am   BACKBONE|DICT|INTERRES
    85   44   45 1    
    86   44  110 1    
    87   45   46 1    
    88   45   47 1    
    89   45  111 1    
    90   46  112 1    
    91   46  113 1    
    92   46  114 1    
    93   47   48 2    
    94   47   49 am   BACKBONE|DICT|INTERRES
    95   49   50 1    
    96   49  115 1    
    97   50   51 1    
    98   50   52 1    
    99   50  116 1    
   100   51  117 1    
   101   51  118 1    
   102   51  119 1    
   103   52   53 2    
   104   52   54 am   BACKBONE|DICT|INTERRES
   105   54   55 1    
   106   54  120 1    
   107   55   56 1    
   108   55   57 1    
   109   55  121 1    
   110   56  122 1    
   111   56  123 1    
   112   56  124 1    
   113   57   58 2    
   114   57   59 am   BACKBONE|DICT|INTERRES
   115   59   60 1    
   116   59  125 1    
   117   60   61 1    
   118   60   62 1    
   119   60  126 1    
   120   61  127 1    
   121   61  128 1    
   122   61  129 1    
   123   62   63 2    
   124   62   64 am   BACKBONE|DICT|INTERRES
   125   64   65 1    
   126   64  130 1    
   127   65   66 1    
   128   65   69 1    
   129   65  131 1    
   130   66   67 am   BACKBONE|DICT|INTERRES
   131   66   68 2    
   132   67  132 1    
   133   67  133 1    
   134   69   70 1    
   135   69  134 1    
   136   69  135 1    
   137   70   71 1    
   138   71  136 1    
   139   71  137 1    
@<TRIPOS>SUBSTRUCTURE
     1 UNK         1 GROUP             0       ****    0 ROOT    
