@<TRIPOS>MOLECULE
3R137
137   139    1
SMALL
USER_CHARGES


@<TRIPOS>ATOM
      1 CA         24.3821   -4.6672   -3.9947 C.3       0 UNK        -0.2020 
      2 C          25.0622   -3.9799   -2.8197 C.2       0 UNK         0.4855 
      3 O          24.7163   -2.8416   -2.4980 O.2       0 UNK        -0.5197 
      4 N          26.0184   -4.6786   -2.1875 N.am      1 UNK        -0.4892 
      5 CA         26.7243   -4.3082   -0.9499 C.3       1 UNK         0.0835 
      6 C6         27.6795   -5.4575   -0.4803 C.3       12 UNK        -0.0855 
      7 S7         29.3568   -5.0408    0.1350 S.3       12 UNK        -0.2931 
      8 C8         30.4398   -5.8052   -1.1177 C.3       12 UNK         0.0378 
      9 C9         30.5065   -4.9843   -2.3981 C.ar      12 UNK        -0.0802 
     10 C10        31.3907   -3.9054   -2.4908 C.ar      12 UNK        -0.0944 
     11 C11        31.4677   -3.1395   -3.6590 C.ar      12 UNK        -0.0787 
     12 C12        30.6498   -3.4702   -4.7450 C.ar      12 UNK        -0.0862 
     13 C13        29.7596   -4.5454   -4.6643 C.ar      12 UNK        -0.0733 
     14 C14        29.6959   -5.3030   -3.4912 C.ar      12 UNK        -0.0832 
     15 C15        28.8577   -4.8847   -5.8403 C.3       12 UNK         0.0240 
     16 S16        27.3022   -3.9444   -5.7680 S.3       12 UNK        -0.2522 
     17 C17        27.8561   -2.2985   -6.3084 C.3       12 UNK        -0.0967 
     18 CA         26.7071   -1.4260   -6.8605 C.3       5 UNK         0.0660 
     19 N          25.6627   -1.1519   -5.8661 N.am      5 UNK        -0.4015 
     20 C          24.4612   -0.6262   -6.1500 C.2       4 UNK         0.4946 
     21 O          24.0960   -0.3428   -7.2917 O.2       4 UNK        -0.5353 
     22 CA         23.5079   -0.3476   -4.9753 C.3       4 UNK         0.0277 
     23 CB         22.4440   -1.4479   -4.8441 C.3       4 UNK        -0.1981 
     24 N          24.2190   -0.1869   -3.7029 N.am      4 UNK        -0.4209 
     25 C          24.6949    0.9923   -3.2777 C.2       3 UNK         0.4942 
     26 O          24.5368    2.0545   -3.8809 O.2       3 UNK        -0.5208 
     27 CA         25.5033    0.9924   -1.9710 C.3       3 UNK         0.0250 
     28 CB         24.5759    0.8280   -0.7560 C.3       3 UNK        -0.1990 
     29 N          26.5619   -0.0179   -1.9140 N.am      3 UNK        -0.4232 
     30 C          27.5426   -0.2043   -2.8065 C.2       2 UNK         0.4993 
     31 O          27.6285    0.4031   -3.8721 O.2       2 UNK        -0.5286 
     32 CA         28.5974   -1.2701   -2.4746 C.3       2 UNK         0.0209 
     33 CB         29.6041   -0.7571   -1.4251 C.3       2 UNK        -0.1931 
     34 N          28.0168   -2.5688   -2.1076 N.am      2 UNK        -0.4546 
     35 C          27.3400   -2.8924   -0.9960 C.2       1 UNK         0.5154 
     36 O          27.1298   -2.1116   -0.0649 O.2       1 UNK        -0.5181 
     37 C          27.2885   -0.1355   -7.4666 C.2       5 UNK         0.5014 
     38 O          27.6279   -0.1398   -8.6497 O.2       5 UNK        -0.5248 
     39 N          27.3823    0.9385   -6.6666 N.am      6 UNK        -0.4434 
     40 CA         27.9436    2.2534   -7.0099 C.3       6 UNK         0.0363 
     41 CB         27.8291    3.1748   -5.7837 C.3       6 UNK        -0.1936 
     42 C          27.3518    2.9467   -8.2537 C.2       6 UNK         0.5081 
     43 O          27.9605    3.8886   -8.7618 O.2       6 UNK        -0.5248 
     44 N          26.1985    2.4712   -8.7413 N.am      7 UNK        -0.4718 
     45 CA         25.6148    2.8537  -10.0274 C.3       7 UNK         0.0273 
     46 CB         24.1830    2.2994  -10.1048 C.3       7 UNK        -0.1935 
     47 C          26.4399    2.3857  -11.2451 C.2       7 UNK         0.5018 
     48 O          26.2786    2.9648  -12.3206 O.2       7 UNK        -0.5186 
     49 N          27.2878    1.3597  -11.0731 N.am      8 UNK        -0.4240 
     50 CA         28.1289    0.7884  -12.1281 C.3       8 UNK         0.0235 
     51 CB         27.4595   -0.4781  -12.6888 C.3       8 UNK        -0.2000 
     52 C          29.5606    0.4830  -11.6590 C.2       8 UNK         0.4941 
     53 O          30.4932    0.6832  -12.4389 O.2       8 UNK        -0.5273 
     54 N          29.7280   -0.0123  -10.4250 N.am      9 UNK        -0.4262 
     55 CA         31.0251   -0.3718   -9.8497 C.3       9 UNK         0.0264 
     56 CB         30.8141   -1.3343   -8.6688 C.3       9 UNK        -0.1955 
     57 C          31.7838    0.8740   -9.3767 C.2       9 UNK         0.5031 
     58 O          31.1852    1.7504   -8.7489 O.2       9 UNK        -0.5390 
     59 N          33.1007    0.8975   -9.6219 N.am      10 UNK        -0.4204 
     60 CA         34.0084    1.9780   -9.2174 C.3       10 UNK         0.0237 
     61 CB         35.3992    1.7293   -9.8238 C.3       10 UNK        -0.1985 
     62 C          34.1120    2.1713   -7.6931 C.2       10 UNK         0.4970 
     63 O          34.3579    3.2928   -7.2476 O.2       10 UNK        -0.4914 
     64 N          33.9110    1.0895   -6.9290 N.am      11 UNK        -0.4285 
     65 CA         33.8247    1.1070   -5.4628 C.3       11 UNK         0.1007 
     66 C          32.4544    1.5884   -4.8972 C.2       11 UNK         0.5703 
     67 N          31.4433    1.8593   -5.7154 N.am      11 UNK        -0.7361 
     68 O          32.3109    1.7321   -3.6858 O.2       11 UNK        -0.4986 
     69 C69        34.2980   -0.2377   -4.8482 C.3       12 UNK        -0.0947 
     70 S70        33.2647   -1.6843   -5.2745 S.3       12 UNK        -0.2240 
     71 C71        32.3839   -1.9197   -3.6945 C.3       12 UNK         0.0194 
     72 H72        24.4846   -4.0670   -4.8975 H         1 UNK         0.0906 
     73 H73        24.8091   -5.6492   -4.1974 H         1 UNK         0.0906 
     74 H74        23.3201   -4.7963   -3.7888 H         1 UNK         0.0906 
     75 H75        26.2370   -5.5985   -2.5413 H         1 UNK         0.3140 
     76 H76        25.9388   -4.2330   -0.1942 H         1 UNK         0.1085 
     77 H77        27.1853   -6.0107    0.3201 H         1 UNK         0.0836 
     78 H78        27.7979   -6.1959   -1.2737 H         1 UNK         0.0836 
     79 H79        31.4426   -5.8984   -0.6978 H         1 UNK         0.0731 
     80 H80        30.1090   -6.8239   -1.3257 H         1 UNK         0.0731 
     81 H81        32.0068   -3.6510   -1.6390 H         1 UNK         0.1312 
     82 H82        30.6923   -2.8783   -5.6485 H         1 UNK         0.1406 
     83 H83        29.0119   -6.1383   -3.4294 H         1 UNK         0.1631 
     84 H84        28.6224   -5.9500   -5.8339 H         1 UNK         0.0717 
     85 H85        29.3697   -4.6951   -6.7849 H         1 UNK         0.0717 
     86 H86        28.3575   -1.7993   -5.4806 H         1 UNK         0.0934 
     87 H87        28.6117   -2.4454   -7.0812 H         1 UNK         0.0934 
     88 H88        26.2371   -1.9736   -7.6806 H         1 UNK         0.0739 
     89 H89        25.8939   -1.3405   -4.9027 H         1 UNK         0.3093 
     90 H90        22.9792    0.5784   -5.2128 H         1 UNK         0.0818 
     91 H91        21.7057   -1.1923   -4.0839 H         1 UNK         0.0819 
     92 H92        21.9065   -1.5864   -5.7833 H         1 UNK         0.0819 
     93 H93        22.8791   -2.4064   -4.5732 H         1 UNK         0.0819 
     94 H94        24.3853   -1.0254   -3.1496 H         1 UNK         0.3041 
     95 H95        25.9923    1.9657   -1.8943 H         1 UNK         0.0784 
     96 H96        23.7773    1.5712   -0.7685 H         1 UNK         0.0793 
     97 H97        24.1074   -0.1571   -0.7366 H         1 UNK         0.0793 
     98 H98        25.1217    0.9562    0.1790 H         1 UNK         0.0793 
     99 H99        26.5815   -0.6167   -1.0921 H         1 UNK         0.3024 
    100 H100       29.1624   -1.4443   -3.3887 H         1 UNK         0.1171 
    101 H101       30.1347    0.1203   -1.7978 H         1 UNK         0.0786 
    102 H102       30.3522   -1.5132   -1.1893 H         1 UNK         0.0786 
    103 H103       29.1200   -0.4669   -0.4925 H         1 UNK         0.0786 
    104 H104       28.1076   -3.2919   -2.8088 H         1 UNK         0.2977 
    105 H105       27.1617    0.8081   -5.6817 H         1 UNK         0.3127 
    106 H106       29.0016    2.0966   -7.2232 H         1 UNK         0.0770 
    107 H107       26.7893    3.3144   -5.4845 H         1 UNK         0.0814 
    108 H108       28.3701    2.7713   -4.9282 H         1 UNK         0.0814 
    109 H109       28.2465    4.1613   -5.9903 H         1 UNK         0.0814 
    110 H110       25.7637    1.6970   -8.2580 H         1 UNK         0.2983 
    111 H111       25.5661    3.9441  -10.0673 H         1 UNK         0.0947 
    112 H112       23.7038    2.5819  -11.0433 H         1 UNK         0.0806 
    113 H113       23.5627    2.6868   -9.2963 H         1 UNK         0.0806 
    114 H114       24.1689    1.2101  -10.0451 H         1 UNK         0.0806 
    115 H115       27.3591    0.9384  -10.1501 H         1 UNK         0.3000 
    116 H116       28.2262    1.5074  -12.9446 H         1 UNK         0.0850 
    117 H117       28.0700   -0.9307  -13.4714 H         1 UNK         0.0810 
    118 H118       26.4877   -0.2503  -13.1272 H         1 UNK         0.0810 
    119 H119       27.3091   -1.2301  -11.9131 H         1 UNK         0.0810 
    120 H120       28.9237   -0.1131   -9.8078 H         1 UNK         0.3040 
    121 H121       31.6116   -0.8873  -10.6135 H         1 UNK         0.0766 
    122 H122       31.7682   -1.6929   -8.2804 H         1 UNK         0.0812 
    123 H123       30.2369   -2.2093   -8.9675 H         1 UNK         0.0812 
    124 H124       30.2927   -0.8477   -7.8436 H         1 UNK         0.0812 
    125 H125       33.5127    0.1311  -10.1355 H         1 UNK         0.3205 
    126 H126       33.6155    2.9081   -9.6339 H         1 UNK         0.0754 
    127 H127       36.0889    2.5330   -9.5612 H         1 UNK         0.0769 
    128 H128       35.3565    1.6863  -10.9124 H         1 UNK         0.0769 
    129 H129       35.8359    0.7959   -9.4661 H         1 UNK         0.0769 
    130 H130       33.7089    0.2063   -7.3719 H         1 UNK         0.2981 
    131 H131       34.5387    1.8556   -5.1142 H         1 UNK         0.0541 
    132 H132       31.5370    1.7821   -6.7214 H         1 UNK         0.3459 
    133 H133       30.5746    2.1708   -5.3154 H         1 UNK         0.3459 
    134 H134       34.3764   -0.1473   -3.7634 H         1 UNK         0.0612 
    135 H135       35.3124   -0.4507   -5.1885 H         1 UNK         0.0612 
    136 H136       31.7847   -1.0329   -3.4886 H         1 UNK         0.0624 
    137 H137       33.1244   -1.9888   -2.8962 H         1 UNK         0.0624 
@<TRIPOS>BOND
     1    1    2 1    
     2    1   72 1    
     3    1   73 1    
     4    1   74 1    
     5    2    3 2    
     6    2    4 am   BACKBONE|DICT|INTERRES
     7    4    5 1    
     8    4   75 1    
     9    5    6 1    
    10    5   35 1    
    11    5   76 1    
    12    6    7 1    
    13    6   77 1    
    14    6   78 1    
    15    7    8 1    
    16    8    9 1    
    17    8   79 1    
    18    8   80 1    
    19    9   10 ar   
    20    9   14 ar   
    21   10   11 ar   
    22   10   81 1    
    23   11   12 ar   
    24   11   71 1    
    25   12   13 ar   
    26   12   82 1    
    27   13   14 ar   
    28   13   15 1    
    29   14   83 1    
    30   15   16 1    
    31   15   84 1    
    32   15   85 1    
    33   16   17 1    
    34   17   18 1    
    35   17   86 1    
    36   17   87 1    
    37   18   19 1    
    38   18   37 1    
    39   18   88 1    
    40   19   20 am   BACKBONE|DICT|INTERRES
    41   19   89 1    
    42   20   21 2    
    43   20   22 1    
    44   22   23 1    
    45   22   24 1    
    46   22   90 1    
    47   23   91 1    
    48   23   92 1    
    49   23   93 1    
    50   24   25 am   BACKBONE|DICT|INTERRES
    51   24   94 1    
    52   25   26 2    
    53   25   27 1    
    54   27   28 1    
    55   27   29 1    
    56   27   95 1    
    57   28   96 1    
    58   28   97 1    
    59   28   98 1    
    60   29   30 am   BACKBONE|DICT|INTERRES
    61   29   99 1    
    62   30   31 2    
    63   30   32 1    
    64   32   33 1    
    65   32   34 1    
    66   32  100 1    
    67   33  101 1    
    68   33  102 1    
    69   33  103 1    
    70   34   35 am   BACKBONE|DICT|INTERRES
    71   34  104 1    
    72   35   36 2    
    73   37   38 2    
    74   37   39 am   BACKBONE|DICT|INTERRES
    75   39   40 1    
    76   39  105 1    
    77   40   41 1    
    78   40   42 1    
    79   40  106 1    
    80   41  107 1    
    81   41  108 1    
    82   41  109 1    
    83   42   43 2    
    84   42   44 am   BACKBONE|DICT|INTERRES
    85   44   45 1    
    86   44  110 1    
    87   45   46 1    
    88   45   47 1    
    89   45  111 1    
    90   46  112 1    
    91   46  113 1    
    92   46  114 1    
    93   47   48 2    
    94   47   49 am   BACKBONE|DICT|INTERRES
    95   49   50 1    
    96   49  115 1    
    97   50   51 1    
    98   50   52 1    
    99   50  116 1    
   100   51  117 1    
   101   51  118 1    
   102   51  119 1    
   103   52   53 2    
   104   52   54 am   BACKBONE|DICT|INTERRES
   105   54   55 1    
   106   54  120 1    
   107   55   56 1    
   108   55   57 1    
   109   55  121 1    
   110   56  122 1    
   111   56  123 1    
   112   56  124 1    
   113   57   58 2    
   114   57   59 am   BACKBONE|DICT|INTERRES
   115   59   60 1    
   116   59  125 1    
   117   60   61 1    
   118   60   62 1    
   119   60  126 1    
   120   61  127 1    
   121   61  128 1    
   122   61  129 1    
   123   62   63 2    
   124   62   64 am   BACKBONE|DICT|INTERRES
   125   64   65 1    
   126   64  130 1    
   127   65   66 1    
   128   65   69 1    
   129   65  131 1    
   130   66   67 am   BACKBONE|DICT|INTERRES
   131   66   68 2    
   132   67  132 1    
   133   67  133 1    
   134   69   70 1    
   135   69  134 1    
   136   69  135 1    
   137   70   71 1    
   138   71  136 1    
   139   71  137 1    
@<TRIPOS>SUBSTRUCTURE
     1 UNK         1 GROUP             0       ****    0 ROOT    
