@<TRIPOS>MOLECULE
3R137
137   139    1
SMALL
USER_CHARGES


@<TRIPOS>ATOM
      1 CA         23.1380   -2.9656   -0.3175 C.3       0 UNK        -0.2020 
      2 C          24.3742   -2.1172   -0.5714 C.2       0 UNK         0.4855 
      3 O          24.3116   -0.8950   -0.4332 O.2       0 UNK        -0.5197 
      4 N          25.4927   -2.7546   -0.9493 N.am      1 UNK        -0.4892 
      5 CA         26.7843   -2.1252   -1.2533 C.3       1 UNK         0.0835 
      6 C6         27.8622   -3.1893   -1.5865 C.3       12 UNK        -0.0855 
      7 S7         29.5539   -2.5588   -1.3363 S.3       12 UNK        -0.2931 
      8 C8         30.5527   -3.9994   -1.8307 C.3       12 UNK         0.0378 
      9 C9         30.8864   -3.9952   -3.3178 C.ar      12 UNK        -0.0802 
     10 C10        32.0443   -3.3532   -3.7701 C.ar      12 UNK        -0.0944 
     11 C11        32.4029   -3.3860   -5.1246 C.ar      12 UNK        -0.0787 
     12 C12        31.5824   -4.0747   -6.0242 C.ar      12 UNK        -0.0862 
     13 C13        30.4301   -4.7344   -5.5855 C.ar      12 UNK        -0.0733 
     14 C14        30.0816   -4.6828   -4.2314 C.ar      12 UNK        -0.0832 
     15 C15        29.6132   -5.5698   -6.5646 C.3       12 UNK         0.0240 
     16 S16        28.5795   -4.5599   -7.6701 S.3       12 UNK        -0.2522 
     17 C17        27.2492   -4.0405   -6.5345 C.3       12 UNK        -0.0967 
     18 CA         26.5915   -2.6811   -6.8934 C.3       5 UNK         0.0660 
     19 N          25.4879   -2.3835   -5.9822 N.am      5 UNK        -0.4015 
     20 C          24.2587   -2.8959   -6.1240 C.2       4 UNK         0.4946 
     21 O          23.8774   -3.4904   -7.1335 O.2       4 UNK        -0.5353 
     22 CA         23.3017   -2.7916   -4.9291 C.3       4 UNK         0.0277 
     23 CB         23.5825   -3.9352   -3.9396 C.3       4 UNK        -0.1981 
     24 N          23.4006   -1.5124   -4.2252 N.am      4 UNK        -0.4209 
     25 C          22.4923   -0.5298   -4.3103 C.2       3 UNK         0.4942 
     26 O          21.5025   -0.5743   -5.0421 O.2       3 UNK        -0.5208 
     27 CA         22.6898    0.7060   -3.4126 C.3       3 UNK         0.0250 
     28 CB         21.7149    0.6695   -2.2239 C.3       3 UNK        -0.1990 
     29 N          24.0570    0.8443   -2.9071 N.am      3 UNK        -0.4232 
     30 C          25.0782    1.3026   -3.6437 C.2       2 UNK         0.4993 
     31 O          24.9691    1.6670   -4.8130 O.2       2 UNK        -0.5286 
     32 CA         26.4680    1.3138   -2.9884 C.3       2 UNK         0.0209 
     33 CB         26.7172    2.6463   -2.2659 C.3       2 UNK        -0.1931 
     34 N          26.6959    0.1999   -2.0603 N.am      2 UNK        -0.4546 
     35 C          26.6351   -1.0974   -2.3911 C.2       1 UNK         0.5154 
     36 O          26.4116   -1.4974   -3.5366 O.2       1 UNK        -0.5181 
     37 C          27.6116   -1.5329   -6.9473 C.2       5 UNK         0.5014 
     38 O          27.9122   -1.0555   -8.0418 O.2       5 UNK        -0.5248 
     39 N          28.1617   -1.1321   -5.7914 N.am      6 UNK        -0.4434 
     40 CA         29.4002   -0.3479   -5.7035 C.3       6 UNK         0.0363 
     41 CB         29.8582   -0.2302   -4.2428 C.3       6 UNK        -0.1936 
     42 C          29.3838    1.0251   -6.3956 C.2       6 UNK         0.5081 
     43 O          30.4312    1.4528   -6.8819 O.2       6 UNK        -0.5248 
     44 N          28.2145    1.6761   -6.4662 N.am      7 UNK        -0.4718 
     45 CA         28.0411    2.9479   -7.1752 C.3       7 UNK         0.0273 
     46 CB         26.7575    3.6402   -6.6938 C.3       7 UNK        -0.1935 
     47 C          28.0195    2.7805   -8.7046 C.2       7 UNK         0.5018 
     48 O          28.4716    3.6808   -9.4117 O.2       7 UNK        -0.5186 
     49 N          27.5124    1.6371   -9.1875 N.am      8 UNK        -0.4240 
     50 CA         27.4862    1.2767  -10.6070 C.3       8 UNK         0.0235 
     51 CB         26.3516    0.2716  -10.8665 C.3       8 UNK        -0.2000 
     52 C          28.8377    0.7061  -11.0608 C.2       8 UNK         0.4941 
     53 O          29.2926    1.0247  -12.1596 O.2       8 UNK        -0.5273 
     54 N          29.4671   -0.1005  -10.1941 N.am      9 UNK        -0.4262 
     55 CA         30.8082   -0.6594  -10.3832 C.3       9 UNK         0.0264 
     56 CB         31.0329   -1.7800   -9.3535 C.3       9 UNK        -0.1955 
     57 C          31.9322    0.3891  -10.2809 C.2       9 UNK         0.5031 
     58 O          33.0326    0.1254  -10.7674 O.2       9 UNK        -0.5390 
     59 N          31.6419    1.5344   -9.6425 N.am      10 UNK        -0.4204 
     60 CA         32.5523    2.6367   -9.3118 C.3       10 UNK         0.0237 
     61 CB         33.0679    3.3393  -10.5862 C.3       10 UNK        -0.1985 
     62 C          33.6756    2.1701   -8.3678 C.2       10 UNK         0.4970 
     63 O          34.8566    2.3897   -8.6453 O.2       10 UNK        -0.4914 
     64 N          33.2702    1.4971   -7.2841 N.am      11 UNK        -0.4285 
     65 CA         34.1522    0.9276   -6.2592 C.3       11 UNK         0.1007 
     66 C          34.9561    2.0071   -5.4802 C.2       11 UNK         0.5703 
     67 N          36.1879    1.7066   -5.0917 N.am      11 UNK        -0.7361 
     68 O          34.4608    3.0966   -5.1960 O.2       11 UNK        -0.4986 
     69 C69        33.3510    0.0034   -5.3040 C.3       12 UNK        -0.0947 
     70 S70        34.3583   -1.3729   -4.6678 S.3       12 UNK        -0.2240 
     71 C71        33.7107   -2.7782   -5.6381 C.3       12 UNK         0.0194 
     72 H72        22.3309   -2.6616   -0.9834 H         1 UNK         0.0906 
     73 H73        23.3293   -4.0265   -0.4771 H         1 UNK         0.0906 
     74 H74        22.7988   -2.8331    0.7095 H         1 UNK         0.0906 
     75 H75        25.4684   -3.7594   -1.0490 H         1 UNK         0.3140 
     76 H76        27.0910   -1.5987   -0.3467 H         1 UNK         0.1085 
     77 H77        27.7472   -4.0513   -0.9270 H         1 UNK         0.0836 
     78 H78        27.7536   -3.5734   -2.6027 H         1 UNK         0.0836 
     79 H79        31.4777   -3.9910   -1.2520 H         1 UNK         0.0731 
     80 H80        30.0401   -4.9225   -1.5555 H         1 UNK         0.0731 
     81 H81        32.6770   -2.8500   -3.0528 H         1 UNK         0.1312 
     82 H82        31.8596   -4.1321   -7.0682 H         1 UNK         0.1406 
     83 H83        29.2032   -5.2074   -3.8814 H         1 UNK         0.1631 
     84 H84        28.9824   -6.2851   -6.0343 H         1 UNK         0.0717 
     85 H85        30.2927   -6.1656   -7.1758 H         1 UNK         0.0717 
     86 H86        26.4952   -4.8293   -6.5406 H         1 UNK         0.0934 
     87 H87        27.6325   -4.0072   -5.5140 H         1 UNK         0.0934 
     88 H88        26.1882   -2.7636   -7.9055 H         1 UNK         0.0739 
     89 H89        25.7366   -1.9209   -5.1100 H         1 UNK         0.3093 
     90 H90        22.2886   -2.9325   -5.3125 H         1 UNK         0.0818 
     91 H91        22.8533   -3.9443   -3.1302 H         1 UNK         0.0819 
     92 H92        23.5207   -4.9048   -4.4361 H         1 UNK         0.0819 
     93 H93        24.5777   -3.8582   -3.5007 H         1 UNK         0.0819 
     94 H94        24.2116   -1.3724   -3.6379 H         1 UNK         0.3041 
     95 H95        22.4522    1.5856   -4.0153 H         1 UNK         0.0784 
     96 H96        20.6811    0.6150   -2.5679 H         1 UNK         0.0793 
     97 H97        21.8899   -0.1942   -1.5821 H         1 UNK         0.0793 
     98 H98        21.8037    1.5662   -1.6104 H         1 UNK         0.0793 
     99 H99        24.2343    0.5147   -1.9627 H         1 UNK         0.3024 
    100 H100       27.1886    1.2338   -3.8010 H         1 UNK         0.1171 
    101 H101       26.5666    3.4908   -2.9403 H         1 UNK         0.0786 
    102 H102       27.7401    2.7106   -1.8941 H         1 UNK         0.0786 
    103 H103       26.0418    2.7802   -1.4199 H         1 UNK         0.0786 
    104 H104       26.8405    0.4448   -1.0908 H         1 UNK         0.2977 
    105 H105       27.8058   -1.5137   -4.9219 H         1 UNK         0.3127 
    106 H106       30.1617   -0.9322   -6.2222 H         1 UNK         0.0770 
    107 H107       29.0757    0.1272   -3.5812 H         1 UNK         0.0814 
    108 H108       30.6936    0.4610   -4.1409 H         1 UNK         0.0814 
    109 H109       30.1942   -1.1945   -3.8668 H         1 UNK         0.0814 
    110 H110       27.3879    1.2498   -6.0717 H         1 UNK         0.2983 
    111 H111       28.8851    3.5965   -6.9284 H         1 UNK         0.0947 
    112 H112       26.6433    4.6183   -7.1631 H         1 UNK         0.0806 
    113 H113       26.7704    3.7985   -5.6153 H         1 UNK         0.0806 
    114 H114       25.8684    3.0576   -6.9377 H         1 UNK         0.0806 
    115 H115       27.2416    0.9128   -8.5337 H         1 UNK         0.3000 
    116 H116       27.2847    2.1737  -11.1970 H         1 UNK         0.0850 
    117 H117       25.3836    0.6864  -10.5852 H         1 UNK         0.0810 
    118 H118       26.4924   -0.6564  -10.3112 H         1 UNK         0.0810 
    119 H119       26.2976    0.0121  -11.9246 H         1 UNK         0.0810 
    120 H120       28.9728   -0.3731   -9.3451 H         1 UNK         0.3040 
    121 H121       30.8543   -1.0959  -11.3831 H         1 UNK         0.0766 
    122 H122       31.0258   -1.3964   -8.3337 H         1 UNK         0.0812 
    123 H123       31.9959   -2.2678   -9.5101 H         1 UNK         0.0812 
    124 H124       30.2638   -2.5491   -9.4271 H         1 UNK         0.0812 
    125 H125       30.7209    1.6043   -9.2310 H         1 UNK         0.3205 
    126 H126       31.9619    3.3636   -8.7514 H         1 UNK         0.0754 
    127 H127       33.6544    4.2231  -10.3325 H         1 UNK         0.0769 
    128 H128       32.2421    3.6679  -11.2174 H         1 UNK         0.0769 
    129 H129       33.7065    2.6870  -11.1826 H         1 UNK         0.0769 
    130 H130       32.2701    1.4156   -7.1157 H         1 UNK         0.2981 
    131 H131       34.8696    0.3146   -6.8089 H         1 UNK         0.0541 
    132 H132       36.5885    0.8037   -5.2935 H         1 UNK         0.3459 
    133 H133       36.7203    2.3882   -4.5742 H         1 UNK         0.3459 
    134 H134       32.4880   -0.4239   -5.8156 H         1 UNK         0.0612 
    135 H135       32.9487    0.5625   -4.4582 H         1 UNK         0.0612 
    136 H136       34.4669   -3.5639   -5.6354 H         1 UNK         0.0624 
    137 H137       33.6004   -2.4635   -6.6773 H         1 UNK         0.0624 
@<TRIPOS>BOND
     1    1    2 1    
     2    1   72 1    
     3    1   73 1    
     4    1   74 1    
     5    2    3 2    
     6    2    4 am   BACKBONE|DICT|INTERRES
     7    4    5 1    
     8    4   75 1    
     9    5    6 1    
    10    5   35 1    
    11    5   76 1    
    12    6    7 1    
    13    6   77 1    
    14    6   78 1    
    15    7    8 1    
    16    8    9 1    
    17    8   79 1    
    18    8   80 1    
    19    9   10 ar   
    20    9   14 ar   
    21   10   11 ar   
    22   10   81 1    
    23   11   12 ar   
    24   11   71 1    
    25   12   13 ar   
    26   12   82 1    
    27   13   14 ar   
    28   13   15 1    
    29   14   83 1    
    30   15   16 1    
    31   15   84 1    
    32   15   85 1    
    33   16   17 1    
    34   17   18 1    
    35   17   86 1    
    36   17   87 1    
    37   18   19 1    
    38   18   37 1    
    39   18   88 1    
    40   19   20 am   BACKBONE|DICT|INTERRES
    41   19   89 1    
    42   20   21 2    
    43   20   22 1    
    44   22   23 1    
    45   22   24 1    
    46   22   90 1    
    47   23   91 1    
    48   23   92 1    
    49   23   93 1    
    50   24   25 am   BACKBONE|DICT|INTERRES
    51   24   94 1    
    52   25   26 2    
    53   25   27 1    
    54   27   28 1    
    55   27   29 1    
    56   27   95 1    
    57   28   96 1    
    58   28   97 1    
    59   28   98 1    
    60   29   30 am   BACKBONE|DICT|INTERRES
    61   29   99 1    
    62   30   31 2    
    63   30   32 1    
    64   32   33 1    
    65   32   34 1    
    66   32  100 1    
    67   33  101 1    
    68   33  102 1    
    69   33  103 1    
    70   34   35 am   BACKBONE|DICT|INTERRES
    71   34  104 1    
    72   35   36 2    
    73   37   38 2    
    74   37   39 am   BACKBONE|DICT|INTERRES
    75   39   40 1    
    76   39  105 1    
    77   40   41 1    
    78   40   42 1    
    79   40  106 1    
    80   41  107 1    
    81   41  108 1    
    82   41  109 1    
    83   42   43 2    
    84   42   44 am   BACKBONE|DICT|INTERRES
    85   44   45 1    
    86   44  110 1    
    87   45   46 1    
    88   45   47 1    
    89   45  111 1    
    90   46  112 1    
    91   46  113 1    
    92   46  114 1    
    93   47   48 2    
    94   47   49 am   BACKBONE|DICT|INTERRES
    95   49   50 1    
    96   49  115 1    
    97   50   51 1    
    98   50   52 1    
    99   50  116 1    
   100   51  117 1    
   101   51  118 1    
   102   51  119 1    
   103   52   53 2    
   104   52   54 am   BACKBONE|DICT|INTERRES
   105   54   55 1    
   106   54  120 1    
   107   55   56 1    
   108   55   57 1    
   109   55  121 1    
   110   56  122 1    
   111   56  123 1    
   112   56  124 1    
   113   57   58 2    
   114   57   59 am   BACKBONE|DICT|INTERRES
   115   59   60 1    
   116   59  125 1    
   117   60   61 1    
   118   60   62 1    
   119   60  126 1    
   120   61  127 1    
   121   61  128 1    
   122   61  129 1    
   123   62   63 2    
   124   62   64 am   BACKBONE|DICT|INTERRES
   125   64   65 1    
   126   64  130 1    
   127   65   66 1    
   128   65   69 1    
   129   65  131 1    
   130   66   67 am   BACKBONE|DICT|INTERRES
   131   66   68 2    
   132   67  132 1    
   133   67  133 1    
   134   69   70 1    
   135   69  134 1    
   136   69  135 1    
   137   70   71 1    
   138   71  136 1    
   139   71  137 1    
@<TRIPOS>SUBSTRUCTURE
     1 UNK         1 GROUP             0       ****    0 ROOT    
