@<TRIPOS>MOLECULE
3R137
137   139    1
SMALL
USER_CHARGES


@<TRIPOS>ATOM
      1 CA         26.5315   -5.2623   -2.6364 C.3       0 UNK        -0.2020 
      2 C          27.2315   -3.9883   -2.1905 C.2       0 UNK         0.4855 
      3 O          27.2613   -3.0129   -2.9426 O.2       0 UNK        -0.5197 
      4 N          27.7964   -3.9929   -0.9732 N.am      1 UNK        -0.4892 
      5 CA         28.5423   -2.8867   -0.3557 C.3       1 UNK         0.0835 
      6 C6         29.9101   -2.6327   -1.0518 C.3       12 UNK        -0.0855 
      7 S7         31.1592   -3.8981   -0.6439 S.3       12 UNK        -0.2931 
      8 C8         30.9140   -5.1741   -1.9280 C.3       12 UNK         0.0378 
      9 C9         31.1429   -4.6887   -3.3568 C.ar      12 UNK        -0.0802 
     10 C10        32.3041   -3.9875   -3.7047 C.ar      12 UNK        -0.0944 
     11 C11        32.5200   -3.5811   -5.0258 C.ar      12 UNK        -0.0787 
     12 C12        31.5755   -3.9026   -6.0054 C.ar      12 UNK        -0.0862 
     13 C13        30.4063   -4.5908   -5.6719 C.ar      12 UNK        -0.0733 
     14 C14        30.1996   -4.9857   -4.3471 C.ar      12 UNK        -0.0832 
     15 C15        29.3701   -4.9004   -6.7481 C.3       12 UNK         0.0240 
     16 S16        27.7701   -4.0757   -6.4481 S.3       12 UNK        -0.2522 
     17 C17        28.2693   -2.3314   -6.2581 C.3       12 UNK        -0.0967 
     18 CA         27.4966   -1.3516   -7.1628 C.3       5 UNK         0.0660 
     19 N          26.0532   -1.4405   -6.9497 N.am      5 UNK        -0.4015 
     20 C          25.1088   -0.7377   -7.5885 C.2       4 UNK         0.4946 
     21 O          25.3415    0.0182   -8.5342 O.2       4 UNK        -0.5353 
     22 CA         23.6802   -0.8342   -7.0165 C.3       4 UNK         0.0277 
     23 CB         22.8581   -1.8633   -7.8076 C.3       4 UNK        -0.1981 
     24 N          23.6290   -1.1619   -5.5802 N.am      4 UNK        -0.4209 
     25 C          24.2291   -0.4590   -4.6052 C.2       3 UNK         0.4942 
     26 O          24.8642    0.5731   -4.8276 O.2       3 UNK        -0.5208 
     27 CA         24.1591   -1.0145   -3.1681 C.3       3 UNK         0.0250 
     28 CB         23.8924   -2.5323   -3.1121 C.3       3 UNK        -0.1990 
     29 N          25.4133   -0.7246   -2.4654 N.am      3 UNK        -0.4232 
     30 C          25.6542    0.3858   -1.7510 C.2       2 UNK         0.4993 
     31 O          24.7917    1.2300   -1.4982 O.2       2 UNK        -0.5286 
     32 CA         27.0988    0.6107   -1.2508 C.3       2 UNK         0.0209 
     33 CB         27.1660    1.4782    0.0251 C.3       2 UNK        -0.1931 
     34 N          27.8795   -0.6229   -1.0937 N.am      2 UNK        -0.4546 
     35 C          27.6395   -1.6359   -0.2458 C.2       1 UNK         0.5154 
     36 O          26.7275   -1.6373    0.5834 O.2       1 UNK        -0.5181 
     37 C          28.0619    0.0738   -6.9755 C.2       5 UNK         0.5014 
     38 O          29.0965    0.3722   -7.5715 O.2       5 UNK        -0.5248 
     39 N          27.3962    0.9449   -6.1996 N.am      6 UNK        -0.4434 
     40 CA         27.7717    2.3557   -6.0524 C.3       6 UNK         0.0363 
     41 CB         26.9620    2.9975   -4.9162 C.3       6 UNK        -0.1936 
     42 C          27.6030    3.1629   -7.3516 C.2       6 UNK         0.5081 
     43 O          28.3037    4.1583   -7.5306 O.2       6 UNK        -0.5248 
     44 N          26.7030    2.7155   -8.2373 N.am      7 UNK        -0.4718 
     45 CA         26.5289    3.2582   -9.5820 C.3       7 UNK         0.0273 
     46 CB         25.0299    3.3151   -9.9214 C.3       7 UNK        -0.1935 
     47 C          27.2874    2.4105  -10.6129 C.2       7 UNK         0.5018 
     48 O          27.9714    2.9742  -11.4672 O.2       7 UNK        -0.5186 
     49 N          27.1420    1.0792  -10.5297 N.am      8 UNK        -0.4240 
     50 CA         27.6549    0.1372  -11.5281 C.3       8 UNK         0.0235 
     51 CB         26.9362   -1.2137  -11.3773 C.3       8 UNK        -0.2000 
     52 C          29.1815   -0.0539  -11.5064 C.2       8 UNK         0.4941 
     53 O          29.7726   -0.1990  -12.5774 O.2       8 UNK        -0.5273 
     54 N          29.7873   -0.0762  -10.3116 N.am      9 UNK        -0.4262 
     55 CA         31.2148   -0.3541  -10.1058 C.3       9 UNK         0.0264 
     56 CB         31.3453   -1.6419   -9.2728 C.3       9 UNK        -0.1955 
     57 C          31.9642    0.8030   -9.4206 C.2       9 UNK         0.5031 
     58 O          33.1951    0.7749   -9.3959 O.2       9 UNK        -0.5390 
     59 N          31.2242    1.7805   -8.8756 N.am      10 UNK        -0.4204 
     60 CA         31.6821    2.8887   -8.0285 C.3       10 UNK         0.0237 
     61 CB         32.6718    3.8107   -8.7741 C.3       10 UNK        -0.1985 
     62 C          32.1989    2.4120   -6.6549 C.2       10 UNK         0.4970 
     63 O          33.1405    2.9986   -6.1176 O.2       10 UNK        -0.4914 
     64 N          31.5621    1.3721   -6.1032 N.am      11 UNK        -0.4285 
     65 CA         31.8818    0.7749   -4.8015 C.3       11 UNK         0.1007 
     66 C          30.6264    0.0840   -4.2193 C.2       11 UNK         0.5703 
     67 N          30.5475   -1.2347   -4.2502 N.am      11 UNK        -0.7361 
     68 O          29.7248    0.7432   -3.7096 O.2       11 UNK        -0.4986 
     69 C69        33.1927   -0.0744   -4.7886 C.3       12 UNK        -0.0947 
     70 S70        33.4024   -1.2141   -6.2029 S.3       12 UNK        -0.2240 
     71 C71        33.7775   -2.8121   -5.4071 C.3       12 UNK         0.0194 
     72 H72        26.8773   -6.1304   -2.0760 H         1 UNK         0.0906 
     73 H73        25.4553   -5.1693   -2.4968 H         1 UNK         0.0906 
     74 H74        26.7228   -5.4453   -3.6935 H         1 UNK         0.0906 
     75 H75        27.6956   -4.8120   -0.3901 H         1 UNK         0.3140 
     76 H76        28.7445   -3.1821    0.6755 H         1 UNK         0.1085 
     77 H77        29.7955   -2.5749   -2.1316 H         1 UNK         0.0836 
     78 H78        30.3374   -1.6791   -0.7357 H         1 UNK         0.0836 
     79 H79        29.9145   -5.5951   -1.8167 H         1 UNK         0.0731 
     80 H80        31.6069   -5.9933   -1.7324 H         1 UNK         0.0731 
     81 H81        33.0379   -3.7594   -2.9437 H         1 UNK         0.1312 
     82 H82        31.7476   -3.5993   -7.0289 H         1 UNK         0.1406 
     83 H83        29.2984   -5.5260   -4.0929 H         1 UNK         0.1631 
     84 H84        29.2094   -5.9784   -6.7904 H         1 UNK         0.0717 
     85 H85        29.7341   -4.6056   -7.7336 H         1 UNK         0.0717 
     86 H86        28.1337   -2.0645   -5.2098 H         1 UNK         0.0934 
     87 H87        29.3361   -2.2439   -6.4646 H         1 UNK         0.0934 
     88 H88        27.6858   -1.6328   -8.1988 H         1 UNK         0.0739 
     89 H89        25.7637   -2.0519   -6.2009 H         1 UNK         0.3093 
     90 H90        23.2187    0.1472   -7.1441 H         1 UNK         0.0818 
     91 H91        21.8164   -1.8723   -7.4863 H         1 UNK         0.0819 
     92 H92        22.8634   -1.6296   -8.8735 H         1 UNK         0.0819 
     93 H93        23.2553   -2.8728   -7.6939 H         1 UNK         0.0819 
     94 H94        23.1220   -1.9973   -5.3252 H         1 UNK         0.3041 
     95 H95        23.3322   -0.5088   -2.6656 H         1 UNK         0.0784 
     96 H96        22.8888   -2.7750   -3.4631 H         1 UNK         0.0793 
     97 H97        24.6041   -3.0929   -3.7195 H         1 UNK         0.0793 
     98 H98        23.9656   -2.9049   -2.0900 H         1 UNK         0.0793 
     99 H99        26.1775   -1.3747   -2.6286 H         1 UNK         0.3024 
    100 H100       27.5945    1.1702   -2.0451 H         1 UNK         0.1171 
    101 H101       26.7317    2.4635   -0.1486 H         1 UNK         0.0786 
    102 H102       26.6199    1.0259    0.8533 H         1 UNK         0.0786 
    103 H103       28.1961    1.6337    0.3455 H         1 UNK         0.0786 
    104 H104       28.6283   -0.7347   -1.7632 H         1 UNK         0.2977 
    105 H105       26.5376    0.6599   -5.7330 H         1 UNK         0.3127 
    106 H106       28.8271    2.3951   -5.7767 H         1 UNK         0.0770 
    107 H107       25.8963    3.0267   -5.1458 H         1 UNK         0.0814 
    108 H108       27.2855    4.0240   -4.7392 H         1 UNK         0.0814 
    109 H109       27.0893    2.4518   -3.9825 H         1 UNK         0.0814 
    110 H110       26.1811    1.8741   -8.0192 H         1 UNK         0.2983 
    111 H111       26.9217    4.2764   -9.6326 H         1 UNK         0.0947 
    112 H112       24.8723    3.7150  -10.9240 H         1 UNK         0.0806 
    113 H113       24.4933    3.9619   -9.2272 H         1 UNK         0.0806 
    114 H114       24.5642    2.3294   -9.8861 H         1 UNK         0.0806 
    115 H115       26.5265    0.6990   -9.8137 H         1 UNK         0.3000 
    116 H116       27.3981    0.5342  -12.5131 H         1 UNK         0.0850 
    117 H117       27.2579   -1.9143  -12.1492 H         1 UNK         0.0810 
    118 H118       25.8560   -1.1009  -11.4733 H         1 UNK         0.0810 
    119 H119       27.1376   -1.6787  -10.4136 H         1 UNK         0.0810 
    120 H120       29.2365    0.0519   -9.4689 H         1 UNK         0.3040 
    121 H121       31.7138   -0.5212  -11.0624 H         1 UNK         0.0766 
    122 H122       30.9138   -1.5240   -8.2787 H         1 UNK         0.0812 
    123 H123       32.3928   -1.9164   -9.1407 H         1 UNK         0.0812 
    124 H124       30.8491   -2.4824   -9.7578 H         1 UNK         0.0812 
    125 H125       30.2213    1.6569   -8.9072 H         1 UNK         0.3205 
    126 H126       30.7958    3.4847   -7.8150 H         1 UNK         0.0754 
    127 H127       32.8677    4.7164   -8.1990 H         1 UNK         0.0769 
    128 H128       32.2735    4.1214   -9.7399 H         1 UNK         0.0769 
    129 H129       33.6324    3.3248   -8.9461 H         1 UNK         0.0769 
    130 H130       30.7813    0.9506   -6.5960 H         1 UNK         0.2981 
    131 H131       32.0584    1.6055   -4.1152 H         1 UNK         0.0541 
    132 H132       31.2962   -1.7848   -4.6474 H         1 UNK         0.3459 
    133 H133       29.7340   -1.6948   -3.8799 H         1 UNK         0.3459 
    134 H134       34.0485    0.6015   -4.8085 H         1 UNK         0.0612 
    135 H135       33.2847   -0.6229   -3.8496 H         1 UNK         0.0612 
    136 H136       34.3519   -3.4187   -6.1083 H         1 UNK         0.0624 
    137 H137       34.4238   -2.6492   -4.5433 H         1 UNK         0.0624 
@<TRIPOS>BOND
     1    1    2 1    
     2    1   72 1    
     3    1   73 1    
     4    1   74 1    
     5    2    3 2    
     6    2    4 am   BACKBONE|DICT|INTERRES
     7    4    5 1    
     8    4   75 1    
     9    5    6 1    
    10    5   35 1    
    11    5   76 1    
    12    6    7 1    
    13    6   77 1    
    14    6   78 1    
    15    7    8 1    
    16    8    9 1    
    17    8   79 1    
    18    8   80 1    
    19    9   10 ar   
    20    9   14 ar   
    21   10   11 ar   
    22   10   81 1    
    23   11   12 ar   
    24   11   71 1    
    25   12   13 ar   
    26   12   82 1    
    27   13   14 ar   
    28   13   15 1    
    29   14   83 1    
    30   15   16 1    
    31   15   84 1    
    32   15   85 1    
    33   16   17 1    
    34   17   18 1    
    35   17   86 1    
    36   17   87 1    
    37   18   19 1    
    38   18   37 1    
    39   18   88 1    
    40   19   20 am   BACKBONE|DICT|INTERRES
    41   19   89 1    
    42   20   21 2    
    43   20   22 1    
    44   22   23 1    
    45   22   24 1    
    46   22   90 1    
    47   23   91 1    
    48   23   92 1    
    49   23   93 1    
    50   24   25 am   BACKBONE|DICT|INTERRES
    51   24   94 1    
    52   25   26 2    
    53   25   27 1    
    54   27   28 1    
    55   27   29 1    
    56   27   95 1    
    57   28   96 1    
    58   28   97 1    
    59   28   98 1    
    60   29   30 am   BACKBONE|DICT|INTERRES
    61   29   99 1    
    62   30   31 2    
    63   30   32 1    
    64   32   33 1    
    65   32   34 1    
    66   32  100 1    
    67   33  101 1    
    68   33  102 1    
    69   33  103 1    
    70   34   35 am   BACKBONE|DICT|INTERRES
    71   34  104 1    
    72   35   36 2    
    73   37   38 2    
    74   37   39 am   BACKBONE|DICT|INTERRES
    75   39   40 1    
    76   39  105 1    
    77   40   41 1    
    78   40   42 1    
    79   40  106 1    
    80   41  107 1    
    81   41  108 1    
    82   41  109 1    
    83   42   43 2    
    84   42   44 am   BACKBONE|DICT|INTERRES
    85   44   45 1    
    86   44  110 1    
    87   45   46 1    
    88   45   47 1    
    89   45  111 1    
    90   46  112 1    
    91   46  113 1    
    92   46  114 1    
    93   47   48 2    
    94   47   49 am   BACKBONE|DICT|INTERRES
    95   49   50 1    
    96   49  115 1    
    97   50   51 1    
    98   50   52 1    
    99   50  116 1    
   100   51  117 1    
   101   51  118 1    
   102   51  119 1    
   103   52   53 2    
   104   52   54 am   BACKBONE|DICT|INTERRES
   105   54   55 1    
   106   54  120 1    
   107   55   56 1    
   108   55   57 1    
   109   55  121 1    
   110   56  122 1    
   111   56  123 1    
   112   56  124 1    
   113   57   58 2    
   114   57   59 am   BACKBONE|DICT|INTERRES
   115   59   60 1    
   116   59  125 1    
   117   60   61 1    
   118   60   62 1    
   119   60  126 1    
   120   61  127 1    
   121   61  128 1    
   122   61  129 1    
   123   62   63 2    
   124   62   64 am   BACKBONE|DICT|INTERRES
   125   64   65 1    
   126   64  130 1    
   127   65   66 1    
   128   65   69 1    
   129   65  131 1    
   130   66   67 am   BACKBONE|DICT|INTERRES
   131   66   68 2    
   132   67  132 1    
   133   67  133 1    
   134   69   70 1    
   135   69  134 1    
   136   69  135 1    
   137   70   71 1    
   138   71  136 1    
   139   71  137 1    
@<TRIPOS>SUBSTRUCTURE
     1 UNK         1 GROUP             0       ****    0 ROOT    
