@<TRIPOS>MOLECULE
3R137
137   139    1
SMALL
USER_CHARGES


@<TRIPOS>ATOM
      1 CA         25.4343   -7.6329   -0.6128 C.3       0 UNK        -0.2020 
      2 C          25.3966   -6.1687   -0.2021 C.2       0 UNK         0.4855 
      3 O          24.8386   -5.8393    0.8445 O.2       0 UNK        -0.5197 
      4 N          25.9787   -5.2844   -1.0221 N.am      1 UNK        -0.4892 
      5 CA         26.0440   -3.8347   -0.7887 C.3       1 UNK         0.0835 
      6 C6         27.2956   -3.2110   -1.4555 C.3       12 UNK        -0.0855 
      7 S7         27.3707   -3.4198   -3.2753 S.3       12 UNK        -0.2931 
      8 C8         28.9456   -4.3181   -3.5010 C.3       12 UNK         0.0378 
      9 C9         30.1535   -3.3917   -3.6245 C.ar      12 UNK        -0.0802 
     10 C10        31.0363   -3.5254   -4.7029 C.ar      12 UNK        -0.0944 
     11 C11        32.1590   -2.6968   -4.8130 C.ar      12 UNK        -0.0787 
     12 C12        32.3901   -1.7181   -3.8419 C.ar      12 UNK        -0.0862 
     13 C13        31.4965   -1.5475   -2.7844 C.ar      12 UNK        -0.0733 
     14 C14        30.4046   -2.4081   -2.6630 C.ar      12 UNK        -0.0832 
     15 C15        31.6719   -0.4043   -1.7981 C.3       12 UNK         0.0240 
     16 S16        30.2535    0.7401   -1.8642 S.3       12 UNK        -0.2522 
     17 C17        30.4386    1.5155   -3.5096 C.3       12 UNK        -0.0967 
     18 CA         29.7107    0.7674   -4.6702 C.3       5 UNK         0.0660 
     19 N          28.3153    0.4185   -4.3542 N.am      5 UNK        -0.4015 
     20 C          27.2661    1.2485   -4.2711 C.2       4 UNK         0.4946 
     21 O          27.2675    2.4067   -4.6955 O.2       4 UNK        -0.5353 
     22 CA         26.0348    0.7050   -3.5152 C.3       4 UNK         0.0277 
     23 CB         24.9328    1.7694   -3.3215 C.3       4 UNK        -0.1981 
     24 N          25.4639   -0.5306   -4.0661 N.am      4 UNK        -0.4209 
     25 C          24.8976   -0.7031   -5.2708 C.2       3 UNK         0.4942 
     26 O          24.8825    0.1528   -6.1500 O.2       3 UNK        -0.5208 
     27 CA         24.1794   -2.0407   -5.5392 C.3       3 UNK         0.0250 
     28 CB         25.0318   -2.9795   -6.4057 C.3       3 UNK        -0.1990 
     29 N          23.7856   -2.7421   -4.3165 N.am      3 UNK        -0.4232 
     30 C          22.7302   -2.4148   -3.5562 C.2       2 UNK         0.4993 
     31 O          21.9427   -1.5080   -3.8276 O.2       2 UNK        -0.5286 
     32 CA         22.5193   -3.2347   -2.2708 C.3       2 UNK         0.0209 
     33 CB         21.5086   -4.3679   -2.5119 C.3       2 UNK        -0.1931 
     34 N          23.7640   -3.8024   -1.7436 N.am      2 UNK        -0.4546 
     35 C          24.7542   -3.0861   -1.1916 C.2       1 UNK         0.5154 
     36 O          24.6928   -1.8659   -1.0335 O.2       1 UNK        -0.5181 
     37 C          29.8782    1.4922   -6.0260 C.2       5 UNK         0.5014 
     38 O          30.0104    0.8348   -7.0588 O.2       5 UNK        -0.5248 
     39 N          29.8705    2.8324   -6.0189 N.am      6 UNK        -0.4434 
     40 CA         29.9629    3.6737   -7.2152 C.3       6 UNK         0.0363 
     41 CB         30.1326    5.1414   -6.7944 C.3       6 UNK        -0.1936 
     42 C          28.7603    3.5156   -8.1619 C.2       6 UNK         0.5081 
     43 O          28.9142    3.7155   -9.3660 O.2       6 UNK        -0.5248 
     44 N          27.5991    3.1345   -7.6130 N.am      7 UNK        -0.4718 
     45 CA         26.3999    2.7875   -8.3765 C.3       7 UNK         0.0273 
     46 CB         25.1604    3.1704   -7.5509 C.3       7 UNK        -0.1935 
     47 C          26.3688    1.3056   -8.8079 C.2       7 UNK         0.5018 
     48 O          25.4678    0.9317   -9.5616 O.2       7 UNK        -0.5186 
     49 N          27.3385    0.4962   -8.3497 N.am      8 UNK        -0.4240 
     50 CA         27.5356   -0.8991   -8.7448 C.3       8 UNK         0.0235 
     51 CB         28.0671   -1.7070   -7.5375 C.3       8 UNK        -0.2000 
     52 C          28.4531   -0.9422   -9.9806 C.2       8 UNK         0.4941 
     53 O          28.2003   -0.2278  -10.9523 O.2       8 UNK        -0.5273 
     54 N          29.5296   -1.7376   -9.9365 N.am      9 UNK        -0.4262 
     55 CA         30.5312   -1.8803  -11.0014 C.3       9 UNK         0.0264 
     56 CB         31.2548   -3.2280  -10.8168 C.3       9 UNK        -0.1955 
     57 C          31.5160   -0.6904  -11.0898 C.2       9 UNK         0.5031 
     58 O          32.6973   -0.9018  -11.3708 O.2       9 UNK        -0.5390 
     59 N          31.0179    0.5318  -10.8434 N.am      10 UNK        -0.4204 
     60 CA         31.7357    1.8126  -10.7962 C.3       10 UNK         0.0237 
     61 CB         32.1479    2.2486  -12.2183 C.3       10 UNK        -0.1985 
     62 C          32.9156    1.8077   -9.8027 C.2       10 UNK         0.4970 
     63 O          33.9857    2.3335  -10.1169 O.2       10 UNK        -0.4914 
     64 N          32.7108    1.1796   -8.6383 N.am      11 UNK        -0.4285 
     65 CA         33.7467    0.9568   -7.6232 C.3       11 UNK         0.1007 
     66 C          34.1932    2.2670   -6.9197 C.2       11 UNK         0.5703 
     67 N          35.4617    2.3687   -6.5465 N.am      11 UNK        -0.7361 
     68 O          33.3954    3.1678   -6.6687 O.2       11 UNK        -0.4986 
     69 C69        33.3070   -0.0990   -6.5802 C.3       12 UNK        -0.0947 
     70 S70        32.7538   -1.6749   -7.3206 S.3       12 UNK        -0.2240 
     71 C71        33.1211   -2.8527   -5.9821 C.3       12 UNK         0.0194 
     72 H72        24.4211   -8.0198   -0.7184 H         1 UNK         0.0906 
     73 H73        25.9536   -7.7785   -1.5599 H         1 UNK         0.0906 
     74 H74        25.9461   -8.2221    0.1477 H         1 UNK         0.0906 
     75 H75        26.4183   -5.6024   -1.8752 H         1 UNK         0.3140 
     76 H76        26.1454   -3.6725    0.2871 H         1 UNK         0.1085 
     77 H77        28.1792   -3.6587   -0.9992 H         1 UNK         0.0836 
     78 H78        27.3618   -2.1451   -1.2271 H         1 UNK         0.0836 
     79 H79        29.1041   -5.0182   -2.6798 H         1 UNK         0.0731 
     80 H80        28.8502   -4.9272   -4.4011 H         1 UNK         0.0731 
     81 H81        30.8551   -4.2793   -5.4567 H         1 UNK         0.1312 
     82 H82        33.2491   -1.0682   -3.9240 H         1 UNK         0.1406 
     83 H83        29.7345   -2.2720   -1.8296 H         1 UNK         0.1631 
     84 H84        32.5944    0.1473   -1.9861 H         1 UNK         0.0717 
     85 H85        31.7534   -0.8118   -0.7896 H         1 UNK         0.0717 
     86 H86        30.0514    2.5295   -3.4005 H         1 UNK         0.0934 
     87 H87        31.5023    1.6212   -3.7325 H         1 UNK         0.0934 
     88 H88        30.2103   -0.1915   -4.8039 H         1 UNK         0.0739 
     89 H89        28.1868   -0.5263   -4.0209 H         1 UNK         0.3093 
     90 H90        26.3949    0.4426   -2.5189 H         1 UNK         0.0818 
     91 H91        24.1155    1.3851   -2.7111 H         1 UNK         0.0819 
     92 H92        25.3266    2.6525   -2.8168 H         1 UNK         0.0819 
     93 H93        24.5139    2.0995   -4.2722 H         1 UNK         0.0819 
     94 H94        25.4201   -1.3074   -3.4208 H         1 UNK         0.3041 
     95 H95        23.2730   -1.8066   -6.1021 H         1 UNK         0.0784 
     96 H96        25.2754   -2.5079   -7.3576 H         1 UNK         0.0793 
     97 H97        25.9680   -3.2491   -5.9175 H         1 UNK         0.0793 
     98 H98        24.4969   -3.9012   -6.6352 H         1 UNK         0.0793 
     99 H99        24.3748   -3.5060   -4.0180 H         1 UNK         0.3024 
    100 H100       22.1071   -2.5581   -1.5184 H         1 UNK         0.1171 
    101 H101       21.8715   -5.0846   -3.2498 H         1 UNK         0.0786 
    102 H102       20.5607   -3.9727   -2.8803 H         1 UNK         0.0786 
    103 H103       21.2947   -4.9114   -1.5913 H         1 UNK         0.0786 
    104 H104       23.8914   -4.8007   -1.8262 H         1 UNK         0.2977 
    105 H105       29.6909    3.3075   -5.1463 H         1 UNK         0.3127 
    106 H106       30.8547    3.3717   -7.7676 H         1 UNK         0.0770 
    107 H107       29.2815    5.4965   -6.2120 H         1 UNK         0.0814 
    108 H108       30.2239    5.7885   -7.6678 H         1 UNK         0.0814 
    109 H109       31.0341    5.2788   -6.1967 H         1 UNK         0.0814 
    110 H110       27.5554    2.9811   -6.6082 H         1 UNK         0.2983 
    111 H111       26.3753    3.3760   -9.2964 H         1 UNK         0.0947 
    112 H112       24.2402    2.8705   -8.0540 H         1 UNK         0.0806 
    113 H113       25.1087    4.2479   -7.3948 H         1 UNK         0.0806 
    114 H114       25.1675    2.6943   -6.5712 H         1 UNK         0.0806 
    115 H115       28.0797    0.8997   -7.7896 H         1 UNK         0.3000 
    116 H116       26.5756   -1.3266   -9.0397 H         1 UNK         0.0850 
    117 H117       29.1080   -1.4892   -7.3004 H         1 UNK         0.0810 
    118 H118       27.4909   -1.4947   -6.6382 H         1 UNK         0.0810 
    119 H119       27.9924   -2.7794   -7.7215 H         1 UNK         0.0810 
    120 H120       29.7050   -2.2540   -9.0865 H         1 UNK         0.3040 
    121 H121       30.0068   -1.9185  -11.9586 H         1 UNK         0.0766 
    122 H122       30.5495   -4.0588  -10.7909 H         1 UNK         0.0812 
    123 H123       31.8350   -3.2494   -9.8935 H         1 UNK         0.0812 
    124 H124       31.9445   -3.4207  -11.6397 H         1 UNK         0.0812 
    125 H125       30.0162    0.5798  -10.6835 H         1 UNK         0.3205 
    126 H126       31.0272    2.5497  -10.4191 H         1 UNK         0.0754 
    127 H127       31.2891    2.2735  -12.8891 H         1 UNK         0.0769 
    128 H128       32.8898    1.5744  -12.6480 H         1 UNK         0.0769 
    129 H129       32.5808    3.2497  -12.2119 H         1 UNK         0.0769 
    130 H130       31.7957    0.8054   -8.4208 H         1 UNK         0.2981 
    131 H131       34.6149    0.5529   -8.1482 H         1 UNK         0.0541 
    132 H132       36.1240    1.6328   -6.7364 H         1 UNK         0.3459 
    133 H133       35.7654    3.2057   -6.0743 H         1 UNK         0.3459 
    134 H134       32.5020    0.2868   -5.9555 H         1 UNK         0.0612 
    135 H135       34.1433   -0.3087   -5.9118 H         1 UNK         0.0612 
    136 H136       33.0593   -3.8649   -6.3843 H         1 UNK         0.0624 
    137 H137       34.1509   -2.7225   -5.6464 H         1 UNK         0.0624 
@<TRIPOS>BOND
     1    1    2 1    
     2    1   72 1    
     3    1   73 1    
     4    1   74 1    
     5    2    3 2    
     6    2    4 am   BACKBONE|DICT|INTERRES
     7    4    5 1    
     8    4   75 1    
     9    5    6 1    
    10    5   35 1    
    11    5   76 1    
    12    6    7 1    
    13    6   77 1    
    14    6   78 1    
    15    7    8 1    
    16    8    9 1    
    17    8   79 1    
    18    8   80 1    
    19    9   10 ar   
    20    9   14 ar   
    21   10   11 ar   
    22   10   81 1    
    23   11   12 ar   
    24   11   71 1    
    25   12   13 ar   
    26   12   82 1    
    27   13   14 ar   
    28   13   15 1    
    29   14   83 1    
    30   15   16 1    
    31   15   84 1    
    32   15   85 1    
    33   16   17 1    
    34   17   18 1    
    35   17   86 1    
    36   17   87 1    
    37   18   19 1    
    38   18   37 1    
    39   18   88 1    
    40   19   20 am   BACKBONE|DICT|INTERRES
    41   19   89 1    
    42   20   21 2    
    43   20   22 1    
    44   22   23 1    
    45   22   24 1    
    46   22   90 1    
    47   23   91 1    
    48   23   92 1    
    49   23   93 1    
    50   24   25 am   BACKBONE|DICT|INTERRES
    51   24   94 1    
    52   25   26 2    
    53   25   27 1    
    54   27   28 1    
    55   27   29 1    
    56   27   95 1    
    57   28   96 1    
    58   28   97 1    
    59   28   98 1    
    60   29   30 am   BACKBONE|DICT|INTERRES
    61   29   99 1    
    62   30   31 2    
    63   30   32 1    
    64   32   33 1    
    65   32   34 1    
    66   32  100 1    
    67   33  101 1    
    68   33  102 1    
    69   33  103 1    
    70   34   35 am   BACKBONE|DICT|INTERRES
    71   34  104 1    
    72   35   36 2    
    73   37   38 2    
    74   37   39 am   BACKBONE|DICT|INTERRES
    75   39   40 1    
    76   39  105 1    
    77   40   41 1    
    78   40   42 1    
    79   40  106 1    
    80   41  107 1    
    81   41  108 1    
    82   41  109 1    
    83   42   43 2    
    84   42   44 am   BACKBONE|DICT|INTERRES
    85   44   45 1    
    86   44  110 1    
    87   45   46 1    
    88   45   47 1    
    89   45  111 1    
    90   46  112 1    
    91   46  113 1    
    92   46  114 1    
    93   47   48 2    
    94   47   49 am   BACKBONE|DICT|INTERRES
    95   49   50 1    
    96   49  115 1    
    97   50   51 1    
    98   50   52 1    
    99   50  116 1    
   100   51  117 1    
   101   51  118 1    
   102   51  119 1    
   103   52   53 2    
   104   52   54 am   BACKBONE|DICT|INTERRES
   105   54   55 1    
   106   54  120 1    
   107   55   56 1    
   108   55   57 1    
   109   55  121 1    
   110   56  122 1    
   111   56  123 1    
   112   56  124 1    
   113   57   58 2    
   114   57   59 am   BACKBONE|DICT|INTERRES
   115   59   60 1    
   116   59  125 1    
   117   60   61 1    
   118   60   62 1    
   119   60  126 1    
   120   61  127 1    
   121   61  128 1    
   122   61  129 1    
   123   62   63 2    
   124   62   64 am   BACKBONE|DICT|INTERRES
   125   64   65 1    
   126   64  130 1    
   127   65   66 1    
   128   65   69 1    
   129   65  131 1    
   130   66   67 am   BACKBONE|DICT|INTERRES
   131   66   68 2    
   132   67  132 1    
   133   67  133 1    
   134   69   70 1    
   135   69  134 1    
   136   69  135 1    
   137   70   71 1    
   138   71  136 1    
   139   71  137 1    
@<TRIPOS>SUBSTRUCTURE
     1 UNK         1 GROUP             0       ****    0 ROOT    
