@<TRIPOS>MOLECULE
3R137
137   139    1
SMALL
USER_CHARGES


@<TRIPOS>ATOM
      1 CA         24.9195   -7.7493    1.2063 C.3       0 UNK        -0.2020 
      2 C          25.3610   -6.3502    0.8037 C.2       0 UNK         0.4855 
      3 O          25.2596   -5.4225    1.6065 O.2       0 UNK        -0.5197 
      4 N          25.8533   -6.1920   -0.4328 N.am      1 UNK        -0.4892 
      5 CA         26.3028   -4.9134   -0.9989 C.3       1 UNK         0.0835 
      6 C6         27.1367   -5.1443   -2.2848 C.3       12 UNK        -0.0855 
      7 S7         28.0842   -3.6768   -2.8138 S.3       12 UNK        -0.2931 
      8 C8         29.7337   -4.0713   -2.1587 C.3       12 UNK         0.0378 
      9 C9         30.7528   -3.0234   -2.5762 C.ar      12 UNK        -0.0802 
     10 C10        31.4014   -3.1334   -3.8091 C.ar      12 UNK        -0.0944 
     11 C11        32.3441   -2.1800   -4.2035 C.ar      12 UNK        -0.0787 
     12 C12        32.6447   -1.1141   -3.3508 C.ar      12 UNK        -0.0862 
     13 C13        31.9947   -0.9871   -2.1205 C.ar      12 UNK        -0.0733 
     14 C14        31.0527   -1.9474   -1.7352 C.ar      12 UNK        -0.0832 
     15 C15        32.3147    0.1831   -1.2034 C.3       12 UNK         0.0240 
     16 S16        30.9144    1.3359   -1.0691 S.3       12 UNK        -0.2522 
     17 C17        30.9275    2.1886   -2.6884 C.3       12 UNK        -0.0967 
     18 CA         29.9743    1.5807   -3.7610 C.3       5 UNK         0.0660 
     19 N          28.6786    1.1910   -3.1867 N.am      5 UNK        -0.4015 
     20 C          27.8341    0.2830   -3.6911 C.2       4 UNK         0.4946 
     21 O          28.0532   -0.3230   -4.7430 O.2       4 UNK        -0.5353 
     22 CA         26.5408    0.0418   -2.8861 C.3       4 UNK         0.0277 
     23 CB         25.7839    1.3550   -2.5854 C.3       4 UNK        -0.1981 
     24 N          25.6462   -0.9428   -3.5059 N.am      4 UNK        -0.4209 
     25 C          24.9964   -0.8548   -4.6790 C.2       3 UNK         0.4942 
     26 O          24.9891    0.1454   -5.3983 O.2       3 UNK        -0.5208 
     27 CA         24.2125   -2.0994   -5.1406 C.3       3 UNK         0.0250 
     28 CB         25.0357   -2.8921   -6.1697 C.3       3 UNK        -0.1990 
     29 N          23.8348   -2.9931   -4.0425 N.am      3 UNK        -0.4232 
     30 C          22.8922   -2.7267   -3.1267 C.2       2 UNK         0.4993 
     31 O          22.1642   -1.7342   -3.1621 O.2       2 UNK        -0.5286 
     32 CA         22.7478   -3.7246   -1.9611 C.3       2 UNK         0.0209 
     33 CB         21.5987   -4.7092   -2.2328 C.3       2 UNK        -0.1931 
     34 N          23.9708   -4.4814   -1.6611 N.am      2 UNK        -0.4546 
     35 C          25.1284   -3.9417   -1.2477 C.2       1 UNK         0.5154 
     36 O          25.2894   -2.7330   -1.0757 O.2       1 UNK        -0.5181 
     37 C          29.7889    2.5293   -4.9763 C.2       5 UNK         0.5014 
     38 O          30.4356    3.5761   -5.0482 O.2       5 UNK        -0.5248 
     39 N          28.8579    2.1888   -5.8744 N.am      6 UNK        -0.4434 
     40 CA         28.3557    3.0483   -6.9423 C.3       6 UNK         0.0363 
     41 CB         26.8793    2.6933   -7.1871 C.3       6 UNK        -0.1936 
     42 C          29.1462    2.8841   -8.2444 C.2       6 UNK         0.5081 
     43 O          29.6379    1.7938   -8.5454 O.2       6 UNK        -0.5248 
     44 N          29.1534    3.9478   -9.0590 N.am      7 UNK        -0.4718 
     45 CA         29.6753    3.9439  -10.4311 C.3       7 UNK         0.0273 
     46 CB         29.6479    5.3716  -10.9979 C.3       7 UNK        -0.1935 
     47 C          28.9165    2.9770  -11.3577 C.2       7 UNK         0.5018 
     48 O          29.5325    2.3746  -12.2355 O.2       7 UNK        -0.5186 
     49 N          27.6149    2.7850  -11.0960 N.am      8 UNK        -0.4240 
     50 CA         26.7541    1.7954  -11.7529 C.3       8 UNK         0.0235 
     51 CB         25.3019    2.0098  -11.2961 C.3       8 UNK        -0.2000 
     52 C          27.1833    0.3354  -11.5057 C.2       8 UNK         0.4941 
     53 O          26.9060   -0.5196  -12.3469 O.2       8 UNK        -0.5273 
     54 N          27.8673    0.0800  -10.3810 N.am      9 UNK        -0.4262 
     55 CA         28.4712   -1.2098  -10.0389 C.3       9 UNK         0.0264 
     56 CB         28.3505   -1.4198   -8.5175 C.3       9 UNK        -0.1955 
     57 C          29.9440   -1.3023  -10.4881 C.2       9 UNK         0.5031 
     58 O          30.5740   -2.3302  -10.2377 O.2       9 UNK        -0.5390 
     59 N          30.4714   -0.2371  -11.1170 N.am      10 UNK        -0.4204 
     60 CA         31.8772   -0.0051  -11.4736 C.3       10 UNK         0.0237 
     61 CB         32.3829   -1.0480  -12.4938 C.3       10 UNK        -0.1985 
     62 C          32.7966    0.1358  -10.2424 C.2       10 UNK         0.4970 
     63 O          33.9902   -0.1555  -10.3377 O.2       10 UNK        -0.4914 
     64 N          32.2307    0.5935   -9.1187 N.am      11 UNK        -0.4285 
     65 CA         32.9073    0.7635   -7.8252 C.3       11 UNK         0.1007 
     66 C          33.2511    2.2455   -7.4996 C.2       11 UNK         0.5703 
     67 N          33.0007    3.2001   -8.3883 N.am      11 UNK        -0.7361 
     68 O          33.7849    2.5330   -6.4310 O.2       11 UNK        -0.4986 
     69 C69        32.0848    0.1019   -6.6904 C.3       12 UNK        -0.0947 
     70 S70        31.9586   -1.7057   -6.8958 S.3       12 UNK        -0.2240 
     71 C71        33.0296   -2.3058   -5.5548 C.3       12 UNK         0.0194 
     72 H72        25.0713   -8.4728    0.4055 H         1 UNK         0.0906 
     73 H73        25.4831   -8.0844    2.0766 H         1 UNK         0.0906 
     74 H74        23.8611   -7.7483    1.4658 H         1 UNK         0.0906 
     75 H75        25.9239   -6.9960   -1.0414 H         1 UNK         0.3140 
     76 H76        26.9510   -4.4428   -0.2557 H         1 UNK         0.1085 
     77 H77        26.4983   -5.4607   -3.1120 H         1 UNK         0.0836 
     78 H78        27.8373   -5.9665   -2.1297 H         1 UNK         0.0836 
     79 H79        30.0472   -5.0517   -2.5211 H         1 UNK         0.0731 
     80 H80        29.6848   -4.1437   -1.0710 H         1 UNK         0.0731 
     81 H81        31.1635   -3.9564   -4.4693 H         1 UNK         0.1312 
     82 H82        33.3781   -0.3774   -3.6487 H         1 UNK         0.1406 
     83 H83        30.5478   -1.8499   -0.7835 H         1 UNK         0.1631 
     84 H84        33.2018    0.7218   -1.5401 H         1 UNK         0.0717 
     85 H85        32.5498   -0.1997   -0.2093 H         1 UNK         0.0717 
     86 H86        30.6526    3.2249   -2.4814 H         1 UNK         0.0934 
     87 H87        31.9488    2.2262   -3.0722 H         1 UNK         0.0934 
     88 H88        30.4482    0.6737   -4.1416 H         1 UNK         0.0739 
     89 H89        28.4370    1.6500   -2.3211 H         1 UNK         0.3093 
     90 H90        26.8458   -0.3997   -1.9358 H         1 UNK         0.0818 
     91 H91        26.3573    2.0071   -1.9265 H         1 UNK         0.0819 
     92 H92        25.5709    1.9181   -3.4949 H         1 UNK         0.0819 
     93 H93        24.8348    1.1573   -2.0867 H         1 UNK         0.0819 
     94 H94        25.5663   -1.8092   -2.9875 H         1 UNK         0.3041 
     95 H95        23.2986   -1.7511   -5.6268 H         1 UNK         0.0784 
     96 H96        25.2885   -2.2671   -7.0272 H         1 UNK         0.0793 
     97 H97        25.9733   -3.2534   -5.7442 H         1 UNK         0.0793 
     98 H98        24.4818   -3.7510   -6.5489 H         1 UNK         0.0793 
     99 H99        24.3688   -3.8436   -3.9426 H         1 UNK         0.3024 
    100 H100       22.4971   -3.1399   -1.0729 H         1 UNK         0.1171 
    101 H101       21.8039   -5.3417   -3.0975 H         1 UNK         0.0786 
    102 H102       21.4200   -5.3581   -1.3751 H         1 UNK         0.0786 
    103 H103       20.6674   -4.1768   -2.4324 H         1 UNK         0.0786 
    104 H104       23.9212   -5.4856   -1.7562 H         1 UNK         0.2977 
    105 H105       28.4205    1.2762   -5.7705 H         1 UNK         0.3127 
    106 H106       28.4151    4.0907   -6.6214 H         1 UNK         0.0770 
    107 H107       26.4357    3.3359   -7.9484 H         1 UNK         0.0814 
    108 H108       26.2873    2.8158   -6.2796 H         1 UNK         0.0814 
    109 H109       26.7608    1.6601   -7.5184 H         1 UNK         0.0814 
    110 H110       28.7250    4.8063   -8.7417 H         1 UNK         0.2983 
    111 H111       30.7138    3.6100  -10.3937 H         1 UNK         0.0947 
    112 H112       30.0511    5.3963  -12.0114 H         1 UNK         0.0806 
    113 H113       30.2526    6.0494  -10.3950 H         1 UNK         0.0806 
    114 H114       28.6344    5.7724  -11.0408 H         1 UNK         0.0806 
    115 H115       27.1956    3.3348  -10.3609 H         1 UNK         0.3000 
    116 H116       26.8072    1.9723  -12.8294 H         1 UNK         0.0850 
    117 H117       25.1904    1.8663  -10.2204 H         1 UNK         0.0810 
    118 H118       24.6301    1.3058  -11.7895 H         1 UNK         0.0810 
    119 H119       24.9516    3.0128  -11.5407 H         1 UNK         0.0810 
    120 H120       28.0882    0.8441   -9.7542 H         1 UNK         0.3040 
    121 H121       27.9274   -2.0158  -10.5358 H         1 UNK         0.0766 
    122 H122       27.3158   -1.3447   -8.1837 H         1 UNK         0.0812 
    123 H123       28.9349   -0.6895   -7.9566 H         1 UNK         0.0812 
    124 H124       28.7126   -2.4073   -8.2284 H         1 UNK         0.0812 
    125 H125       29.8570    0.5431  -11.3216 H         1 UNK         0.3205 
    126 H126       31.9004    0.9664  -11.9690 H         1 UNK         0.0754 
    127 H127       33.3639   -0.7711  -12.8818 H         1 UNK         0.0769 
    128 H128       31.7094   -1.1268  -13.3471 H         1 UNK         0.0769 
    129 H129       32.4800   -2.0387  -12.0490 H         1 UNK         0.0769 
    130 H130       31.2462    0.8437   -9.1147 H         1 UNK         0.2981 
    131 H131       33.8736    0.2575   -7.8566 H         1 UNK         0.0541 
    132 H132       32.5927    2.9701   -9.2780 H         1 UNK         0.3459 
    133 H133       33.2381    4.1537   -8.1666 H         1 UNK         0.3459 
    134 H134       31.0724    0.5039   -6.6711 H         1 UNK         0.0612 
    135 H135       32.5174    0.3250   -5.7162 H         1 UNK         0.0612 
    136 H136       33.9756   -1.7621   -5.5681 H         1 UNK         0.0624 
    137 H137       33.2746   -3.3520   -5.7429 H         1 UNK         0.0624 
@<TRIPOS>BOND
     1    1    2 1    
     2    1   72 1    
     3    1   73 1    
     4    1   74 1    
     5    2    3 2    
     6    2    4 am   BACKBONE|DICT|INTERRES
     7    4    5 1    
     8    4   75 1    
     9    5    6 1    
    10    5   35 1    
    11    5   76 1    
    12    6    7 1    
    13    6   77 1    
    14    6   78 1    
    15    7    8 1    
    16    8    9 1    
    17    8   79 1    
    18    8   80 1    
    19    9   10 ar   
    20    9   14 ar   
    21   10   11 ar   
    22   10   81 1    
    23   11   12 ar   
    24   11   71 1    
    25   12   13 ar   
    26   12   82 1    
    27   13   14 ar   
    28   13   15 1    
    29   14   83 1    
    30   15   16 1    
    31   15   84 1    
    32   15   85 1    
    33   16   17 1    
    34   17   18 1    
    35   17   86 1    
    36   17   87 1    
    37   18   19 1    
    38   18   37 1    
    39   18   88 1    
    40   19   20 am   BACKBONE|DICT|INTERRES
    41   19   89 1    
    42   20   21 2    
    43   20   22 1    
    44   22   23 1    
    45   22   24 1    
    46   22   90 1    
    47   23   91 1    
    48   23   92 1    
    49   23   93 1    
    50   24   25 am   BACKBONE|DICT|INTERRES
    51   24   94 1    
    52   25   26 2    
    53   25   27 1    
    54   27   28 1    
    55   27   29 1    
    56   27   95 1    
    57   28   96 1    
    58   28   97 1    
    59   28   98 1    
    60   29   30 am   BACKBONE|DICT|INTERRES
    61   29   99 1    
    62   30   31 2    
    63   30   32 1    
    64   32   33 1    
    65   32   34 1    
    66   32  100 1    
    67   33  101 1    
    68   33  102 1    
    69   33  103 1    
    70   34   35 am   BACKBONE|DICT|INTERRES
    71   34  104 1    
    72   35   36 2    
    73   37   38 2    
    74   37   39 am   BACKBONE|DICT|INTERRES
    75   39   40 1    
    76   39  105 1    
    77   40   41 1    
    78   40   42 1    
    79   40  106 1    
    80   41  107 1    
    81   41  108 1    
    82   41  109 1    
    83   42   43 2    
    84   42   44 am   BACKBONE|DICT|INTERRES
    85   44   45 1    
    86   44  110 1    
    87   45   46 1    
    88   45   47 1    
    89   45  111 1    
    90   46  112 1    
    91   46  113 1    
    92   46  114 1    
    93   47   48 2    
    94   47   49 am   BACKBONE|DICT|INTERRES
    95   49   50 1    
    96   49  115 1    
    97   50   51 1    
    98   50   52 1    
    99   50  116 1    
   100   51  117 1    
   101   51  118 1    
   102   51  119 1    
   103   52   53 2    
   104   52   54 am   BACKBONE|DICT|INTERRES
   105   54   55 1    
   106   54  120 1    
   107   55   56 1    
   108   55   57 1    
   109   55  121 1    
   110   56  122 1    
   111   56  123 1    
   112   56  124 1    
   113   57   58 2    
   114   57   59 am   BACKBONE|DICT|INTERRES
   115   59   60 1    
   116   59  125 1    
   117   60   61 1    
   118   60   62 1    
   119   60  126 1    
   120   61  127 1    
   121   61  128 1    
   122   61  129 1    
   123   62   63 2    
   124   62   64 am   BACKBONE|DICT|INTERRES
   125   64   65 1    
   126   64  130 1    
   127   65   66 1    
   128   65   69 1    
   129   65  131 1    
   130   66   67 am   BACKBONE|DICT|INTERRES
   131   66   68 2    
   132   67  132 1    
   133   67  133 1    
   134   69   70 1    
   135   69  134 1    
   136   69  135 1    
   137   70   71 1    
   138   71  136 1    
   139   71  137 1    
@<TRIPOS>SUBSTRUCTURE
     1 UNK         1 GROUP             0       ****    0 ROOT    
