@<TRIPOS>MOLECULE
3R137
137   139    1
SMALL
USER_CHARGES


@<TRIPOS>ATOM
      1 CA         29.1803   -5.6963   -5.7277 C.3       0 UNK        -0.2020 
      2 C          28.0583   -5.5232   -4.7148 C.2       0 UNK         0.4855 
      3 O          26.9453   -5.9965   -4.9463 O.2       0 UNK        -0.5197 
      4 N          28.3463   -4.8514   -3.5955 N.am      1 UNK        -0.4892 
      5 CA         27.4039   -4.5967   -2.5000 C.3       1 UNK         0.0835 
      6 C6         28.0814   -4.6492   -1.0950 C.3       12 UNK        -0.0855 
      7 S7         29.4531   -5.8565   -0.9462 S.3       12 UNK        -0.2931 
      8 C8         30.8863   -4.8126   -0.4969 C.3       12 UNK         0.0378 
      9 C9         31.0515   -3.5868   -1.3902 C.ar      12 UNK        -0.0802 
     10 C10        31.5279   -3.7130   -2.6989 C.ar      12 UNK        -0.0944 
     11 C11        31.6584   -2.5846   -3.5162 C.ar      12 UNK        -0.0787 
     12 C12        31.3130   -1.3279   -3.0117 C.ar      12 UNK        -0.0862 
     13 C13        30.8428   -1.1824   -1.7023 C.ar      12 UNK        -0.0733 
     14 C14        30.7278   -2.3182   -0.8968 C.ar      12 UNK        -0.0832 
     15 C15        30.4617    0.1805   -1.1197 C.3       12 UNK         0.0240 
     16 S16        29.8899    1.4238   -2.3326 S.3       12 UNK        -0.2522 
     17 C17        28.4270    0.6064   -3.0516 C.3       12 UNK        -0.0967 
     18 CA         28.3220    0.8428   -4.5814 C.3       5 UNK         0.0660 
     19 N          27.6357   -0.2562   -5.2608 N.am      5 UNK        -0.4015 
     20 C          27.5318   -0.4160   -6.5879 C.2       4 UNK         0.4946 
     21 O          28.1137    0.2796   -7.4207 O.2       4 UNK        -0.5353 
     22 CA         26.6025   -1.5352   -7.0797 C.3       4 UNK         0.0277 
     23 CB         27.3763   -2.8506   -7.2258 C.3       4 UNK        -0.1981 
     24 N          25.4534   -1.7323   -6.1947 N.am      4 UNK        -0.4209 
     25 C          24.4311   -0.8715   -6.0916 C.2       3 UNK         0.4942 
     26 O          24.3428    0.1687   -6.7439 O.2       3 UNK        -0.5208 
     27 CA         23.3464   -1.2109   -5.0565 C.3       3 UNK         0.0250 
     28 CB         22.3755   -2.2665   -5.6093 C.3       3 UNK        -0.1990 
     29 N          23.9016   -1.6679   -3.7791 N.am      3 UNK        -0.4232 
     30 C          24.6407   -0.9011   -2.9658 C.2       2 UNK         0.4993 
     31 O          24.9396    0.2683   -3.2080 O.2       2 UNK        -0.5286 
     32 CA         25.1741   -1.5583   -1.6829 C.3       2 UNK         0.0209 
     33 CB         24.0838   -1.5916   -0.5998 C.3       2 UNK        -0.1931 
     34 N          25.7443   -2.9031   -1.8503 N.am      2 UNK        -0.4546 
     35 C          26.7132   -3.2330   -2.7178 C.2       1 UNK         0.5154 
     36 O          27.0969   -2.4841   -3.6204 O.2       1 UNK        -0.5181 
     37 C          27.6514    2.1938   -4.8965 C.2       5 UNK         0.5014 
     38 O          28.3348    3.1228   -5.3270 O.2       5 UNK        -0.5248 
     39 N          26.3228    2.2647   -4.7147 N.am      6 UNK        -0.4434 
     40 CA         25.4966    3.4423   -4.9986 C.3       6 UNK         0.0363 
     41 CB         24.0583    3.1897   -4.5195 C.3       6 UNK        -0.1936 
     42 C          25.5089    3.8499   -6.4812 C.2       6 UNK         0.5081 
     43 O          25.5595    5.0432   -6.7804 O.2       6 UNK        -0.5248 
     44 N          25.4910    2.8568   -7.3802 N.am      7 UNK        -0.4718 
     45 CA         25.6201    3.0487   -8.8270 C.3       7 UNK         0.0273 
     46 CB         25.1509    1.7695   -9.5397 C.3       7 UNK        -0.1935 
     47 C          27.0483    3.4086   -9.2801 C.2       7 UNK         0.5018 
     48 O          27.2060    3.8939  -10.4010 O.2       7 UNK        -0.5186 
     49 N          28.0511    3.1321   -8.4301 N.am      8 UNK        -0.4240 
     50 CA         29.4953    3.1821   -8.6967 C.3       8 UNK         0.0235 
     51 CB         29.9740    4.6368   -8.8839 C.3       8 UNK        -0.2000 
     52 C          29.8944    2.2521   -9.8610 C.2       8 UNK         0.4941 
     53 O          30.6730    2.6422  -10.7338 O.2       8 UNK        -0.5273 
     54 N          29.2999    1.0519   -9.8724 N.am      9 UNK        -0.4262 
     55 CA         29.4021    0.0800  -10.9574 C.3       9 UNK         0.0264 
     56 CB         28.0649   -0.6695  -11.0994 C.3       9 UNK        -0.1955 
     57 C          30.5678   -0.8893  -10.7325 C.2       9 UNK         0.5031 
     58 O          31.4626   -0.9700  -11.5750 O.2       9 UNK        -0.5390 
     59 N          30.5282   -1.6187   -9.6094 N.am      10 UNK        -0.4204 
     60 CA         31.5118   -2.6528   -9.2719 C.3       10 UNK         0.0237 
     61 CB         30.8569   -3.7013   -8.3571 C.3       10 UNK        -0.1985 
     62 C          32.7853   -2.0888   -8.6222 C.2       10 UNK         0.4970 
     63 O          33.8391   -2.7161   -8.7337 O.2       10 UNK        -0.4914 
     64 N          32.6628   -0.9379   -7.9529 N.am      11 UNK        -0.4285 
     65 CA         33.7376   -0.2371   -7.2423 C.3       11 UNK         0.1007 
     66 C          33.6930    1.2658   -7.6114 C.2       11 UNK         0.5703 
     67 N          34.8437    1.9116   -7.7398 N.am      11 UNK        -0.7361 
     68 O          32.6234    1.8571   -7.7475 O.2       11 UNK        -0.4986 
     69 C69        33.6282   -0.4231   -5.7045 C.3       12 UNK        -0.0947 
     70 S70        33.8611   -2.1528   -5.1626 S.3       12 UNK        -0.2240 
     71 C71        32.1441   -2.7229   -4.9518 C.3       12 UNK         0.0194 
     72 H72        29.5353   -6.7264   -5.7193 H         1 UNK         0.0906 
     73 H73        28.8235   -5.4696   -6.7317 H         1 UNK         0.0906 
     74 H74        30.0244   -5.0429   -5.5120 H         1 UNK         0.0906 
     75 H75        29.2632   -4.4488   -3.4638 H         1 UNK         0.3140 
     76 H76        26.6255   -5.3628   -2.5225 H         1 UNK         0.1085 
     77 H77        27.3349   -4.9154   -0.3448 H         1 UNK         0.0836 
     78 H78        28.4366   -3.6661   -0.7890 H         1 UNK         0.0836 
     79 H79        31.7918   -5.4189   -0.5472 H         1 UNK         0.0731 
     80 H80        30.7841   -4.5127    0.5473 H         1 UNK         0.0731 
     81 H81        31.7885   -4.6913   -3.0800 H         1 UNK         0.1312 
     82 H82        31.4070   -0.4588   -3.6429 H         1 UNK         0.1406 
     83 H83        30.3697   -2.2158    0.1191 H         1 UNK         0.1631 
     84 H84        31.3287    0.5846   -0.5958 H         1 UNK         0.0717 
     85 H85        29.6776    0.0583   -0.3707 H         1 UNK         0.0717 
     86 H86        28.5051   -0.4612   -2.8493 H         1 UNK         0.0934 
     87 H87        27.5324    0.9344   -2.5188 H         1 UNK         0.0934 
     88 H88        29.3306    0.8690   -5.0005 H         1 UNK         0.0739 
     89 H89        27.2037   -0.9557   -4.6607 H         1 UNK         0.3093 
     90 H90        26.2232   -1.2509   -8.0634 H         1 UNK         0.0818 
     91 H91        28.1160   -2.7746   -8.0212 H         1 UNK         0.0819 
     92 H92        27.9034   -3.1039   -6.3063 H         1 UNK         0.0819 
     93 H93        26.7167   -3.6809   -7.4790 H         1 UNK         0.0819 
     94 H94        25.4806   -2.5328   -5.5788 H         1 UNK         0.3041 
     95 H95        22.7802   -0.2966   -4.8649 H         1 UNK         0.0784 
     96 H96        21.9414   -1.9384   -6.5550 H         1 UNK         0.0793 
     97 H97        22.8718   -3.2205   -5.7921 H         1 UNK         0.0793 
     98 H98        21.5493   -2.4442   -4.9206 H         1 UNK         0.0793 
     99 H99        23.7159   -2.6220   -3.5055 H         1 UNK         0.3024 
    100 H100       25.9825   -0.9186   -1.3217 H         1 UNK         0.1171 
    101 H101       24.4867   -1.9153    0.3601 H         1 UNK         0.0786 
    102 H102       23.6525   -0.6008   -0.4482 H         1 UNK         0.0786 
    103 H103       23.2680   -2.2648   -0.8661 H         1 UNK         0.0786 
    104 H104       25.4728   -3.5842   -1.1556 H         1 UNK         0.2977 
    105 H105       25.8381    1.4623   -4.3146 H         1 UNK         0.3127 
    106 H106       25.9062    4.2761   -4.4248 H         1 UNK         0.0770 
    107 H107       23.6075    2.3378   -5.0303 H         1 UNK         0.0814 
    108 H108       23.4248    4.0576   -4.7072 H         1 UNK         0.0814 
    109 H109       24.0268    2.9904   -3.4482 H         1 UNK         0.0814 
    110 H110       25.3619    1.9032   -7.0541 H         1 UNK         0.2983 
    111 H111       24.9653    3.8699   -9.1267 H         1 UNK         0.0947 
    112 H112       25.7699    0.9123   -9.2729 H         1 UNK         0.0806 
    113 H113       25.1995    1.8830  -10.6236 H         1 UNK         0.0806 
    114 H114       24.1186    1.5287   -9.2849 H         1 UNK         0.0806 
    115 H115       27.8008    2.7371   -7.5318 H         1 UNK         0.3000 
    116 H116       29.9832    2.7838   -7.8055 H         1 UNK         0.0850 
    117 H117       31.0611    4.6791   -8.9622 H         1 UNK         0.0810 
    118 H118       29.6854    5.2591   -8.0369 H         1 UNK         0.0810 
    119 H119       29.5639    5.0867   -9.7884 H         1 UNK         0.0810 
    120 H120       28.7240    0.8027   -9.0693 H         1 UNK         0.3040 
    121 H121       29.5842    0.6059  -11.8975 H         1 UNK         0.0766 
    122 H122       28.1227   -1.4267  -11.8826 H         1 UNK         0.0812 
    123 H123       27.2610    0.0145  -11.3722 H         1 UNK         0.0812 
    124 H124       27.7716   -1.1729  -10.1780 H         1 UNK         0.0812 
    125 H125       29.7668   -1.4714   -8.9640 H         1 UNK         0.3205 
    126 H126       31.8176   -3.1608  -10.1895 H         1 UNK         0.0754 
    127 H127       30.0361   -4.2088   -8.8642 H         1 UNK         0.0769 
    128 H128       30.4642   -3.2559   -7.4439 H         1 UNK         0.0769 
    129 H129       31.5747   -4.4688   -8.0633 H         1 UNK         0.0769 
    130 H130       31.7824   -0.4447   -7.9769 H         1 UNK         0.2981 
    131 H131       34.7039   -0.6259   -7.5700 H         1 UNK         0.0541 
    132 H132       34.8286    2.8935   -7.9667 H         1 UNK         0.3459 
    133 H133       35.7259    1.4396   -7.6157 H         1 UNK         0.3459 
    134 H134       34.3919    0.1709   -5.1992 H         1 UNK         0.0612 
    135 H135       32.6711   -0.0431   -5.3499 H         1 UNK         0.0612 
    136 H136       31.4805   -2.1682   -5.6152 H         1 UNK         0.0624 
    137 H137       32.0929   -3.7647   -5.2701 H         1 UNK         0.0624 
@<TRIPOS>BOND
     1    1    2 1    
     2    1   72 1    
     3    1   73 1    
     4    1   74 1    
     5    2    3 2    
     6    2    4 am   BACKBONE|DICT|INTERRES
     7    4    5 1    
     8    4   75 1    
     9    5    6 1    
    10    5   35 1    
    11    5   76 1    
    12    6    7 1    
    13    6   77 1    
    14    6   78 1    
    15    7    8 1    
    16    8    9 1    
    17    8   79 1    
    18    8   80 1    
    19    9   10 ar   
    20    9   14 ar   
    21   10   11 ar   
    22   10   81 1    
    23   11   12 ar   
    24   11   71 1    
    25   12   13 ar   
    26   12   82 1    
    27   13   14 ar   
    28   13   15 1    
    29   14   83 1    
    30   15   16 1    
    31   15   84 1    
    32   15   85 1    
    33   16   17 1    
    34   17   18 1    
    35   17   86 1    
    36   17   87 1    
    37   18   19 1    
    38   18   37 1    
    39   18   88 1    
    40   19   20 am   BACKBONE|DICT|INTERRES
    41   19   89 1    
    42   20   21 2    
    43   20   22 1    
    44   22   23 1    
    45   22   24 1    
    46   22   90 1    
    47   23   91 1    
    48   23   92 1    
    49   23   93 1    
    50   24   25 am   BACKBONE|DICT|INTERRES
    51   24   94 1    
    52   25   26 2    
    53   25   27 1    
    54   27   28 1    
    55   27   29 1    
    56   27   95 1    
    57   28   96 1    
    58   28   97 1    
    59   28   98 1    
    60   29   30 am   BACKBONE|DICT|INTERRES
    61   29   99 1    
    62   30   31 2    
    63   30   32 1    
    64   32   33 1    
    65   32   34 1    
    66   32  100 1    
    67   33  101 1    
    68   33  102 1    
    69   33  103 1    
    70   34   35 am   BACKBONE|DICT|INTERRES
    71   34  104 1    
    72   35   36 2    
    73   37   38 2    
    74   37   39 am   BACKBONE|DICT|INTERRES
    75   39   40 1    
    76   39  105 1    
    77   40   41 1    
    78   40   42 1    
    79   40  106 1    
    80   41  107 1    
    81   41  108 1    
    82   41  109 1    
    83   42   43 2    
    84   42   44 am   BACKBONE|DICT|INTERRES
    85   44   45 1    
    86   44  110 1    
    87   45   46 1    
    88   45   47 1    
    89   45  111 1    
    90   46  112 1    
    91   46  113 1    
    92   46  114 1    
    93   47   48 2    
    94   47   49 am   BACKBONE|DICT|INTERRES
    95   49   50 1    
    96   49  115 1    
    97   50   51 1    
    98   50   52 1    
    99   50  116 1    
   100   51  117 1    
   101   51  118 1    
   102   51  119 1    
   103   52   53 2    
   104   52   54 am   BACKBONE|DICT|INTERRES
   105   54   55 1    
   106   54  120 1    
   107   55   56 1    
   108   55   57 1    
   109   55  121 1    
   110   56  122 1    
   111   56  123 1    
   112   56  124 1    
   113   57   58 2    
   114   57   59 am   BACKBONE|DICT|INTERRES
   115   59   60 1    
   116   59  125 1    
   117   60   61 1    
   118   60   62 1    
   119   60  126 1    
   120   61  127 1    
   121   61  128 1    
   122   61  129 1    
   123   62   63 2    
   124   62   64 am   BACKBONE|DICT|INTERRES
   125   64   65 1    
   126   64  130 1    
   127   65   66 1    
   128   65   69 1    
   129   65  131 1    
   130   66   67 am   BACKBONE|DICT|INTERRES
   131   66   68 2    
   132   67  132 1    
   133   67  133 1    
   134   69   70 1    
   135   69  134 1    
   136   69  135 1    
   137   70   71 1    
   138   71  136 1    
   139   71  137 1    
@<TRIPOS>SUBSTRUCTURE
     1 UNK         1 GROUP             0       ****    0 ROOT    
