@<TRIPOS>MOLECULE
3R137
137   139    1
SMALL
USER_CHARGES


@<TRIPOS>ATOM
      1 CA         26.1524   -4.1383   -0.7628 C.3       0 UNK        -0.2020 
      2 C          26.6492   -3.8961    0.6593 C.2       0 UNK         0.4855 
      3 O          26.2720   -4.6470    1.5564 O.2       0 UNK        -0.5197 
      4 N          27.4822   -2.8804    0.9377 N.am      1 UNK        -0.4892 
      5 CA         28.0473   -1.8494    0.0447 C.3       1 UNK         0.0835 
      6 C6         28.8694   -2.3942   -1.1586 C.3       12 UNK        -0.0855 
      7 S7         30.0685   -3.6942   -0.7057 S.3       12 UNK        -0.2931 
      8 C8         31.4009   -3.3984   -1.9195 C.3       12 UNK         0.0378 
      9 C9         30.9872   -3.4985   -3.3902 C.ar      12 UNK        -0.0802 
     10 C10        31.7498   -2.8189   -4.3438 C.ar      12 UNK        -0.0944 
     11 C11        31.4321   -2.8793   -5.7079 C.ar      12 UNK        -0.0787 
     12 C12        30.3291   -3.6423   -6.1076 C.ar      12 UNK        -0.0862 
     13 C13        29.5565   -4.3351   -5.1705 C.ar      12 UNK        -0.0733 
     14 C14        29.8960   -4.2653   -3.8170 C.ar      12 UNK        -0.0832 
     15 C15        28.3739   -5.1884   -5.6101 C.3       12 UNK         0.0240 
     16 S16        26.8482   -4.2098   -5.8082 S.3       12 UNK        -0.2522 
     17 C17        26.8617   -3.8439   -7.6011 C.3       12 UNK        -0.0967 
     18 CA         26.6661   -2.3509   -7.9593 C.3       5 UNK         0.0660 
     19 N          25.4037   -1.8048   -7.4541 N.am      5 UNK        -0.4015 
     20 C          24.9199   -0.5923   -7.7609 C.2       4 UNK         0.4946 
     21 O          25.4681    0.1802   -8.5474 O.2       4 UNK        -0.5353 
     22 CA         23.6342   -0.1357   -7.0512 C.3       4 UNK         0.0277 
     23 CB         22.4167   -0.3606   -7.9617 C.3       4 UNK        -0.1981 
     24 N          23.3905   -0.7622   -5.7461 N.am      4 UNK        -0.4209 
     25 C          24.2089   -0.6934   -4.6872 C.2       3 UNK         0.4942 
     26 O          25.3245   -0.1667   -4.7075 O.2       3 UNK        -0.5208 
     27 CA         23.7064   -1.3618   -3.4053 C.3       3 UNK         0.0250 
     28 CB         23.9883   -2.8741   -3.4309 C.3       3 UNK        -0.1990 
     29 N          24.3750   -0.7495   -2.2611 N.am      3 UNK        -0.4232 
     30 C          23.8420   -0.5795   -1.0468 C.2       2 UNK         0.4993 
     31 O          22.7199   -0.9819   -0.7326 O.2       2 UNK        -0.5286 
     32 CA         24.7273    0.1295   -0.0028 C.3       2 UNK         0.0209 
     33 CB         23.9629    0.4722    1.2903 C.3       2 UNK        -0.1931 
     34 N          25.8866   -0.6969    0.3390 N.am      2 UNK        -0.4546 
     35 C          26.9998   -0.8025   -0.3994 C.2       1 UNK         0.5154 
     36 O          27.1916   -0.1314   -1.4141 O.2       1 UNK        -0.5181 
     37 C          27.8909   -1.4970   -7.5758 C.2       5 UNK         0.5014 
     38 O          28.8070   -1.3734   -8.3897 O.2       5 UNK        -0.5248 
     39 N          27.8709   -0.8883   -6.3793 N.am      6 UNK        -0.4434 
     40 CA         28.9305   -0.0011   -5.9000 C.3       6 UNK         0.0363 
     41 CB         28.7443    0.2794   -4.4032 C.3       6 UNK        -0.1936 
     42 C          29.0175    1.3050   -6.7026 C.2       6 UNK         0.5081 
     43 O          30.1163    1.8316   -6.8750 O.2       6 UNK        -0.5248 
     44 N          27.8748    1.7871   -7.2076 N.am      7 UNK        -0.4718 
     45 CA         27.8070    2.9194   -8.1276 C.3       7 UNK         0.0273 
     46 CB         26.4066    3.5524   -8.0765 C.3       7 UNK        -0.1935 
     47 C          28.1736    2.4907   -9.5558 C.2       7 UNK         0.5018 
     48 O          29.0193    3.1336  -10.1770 O.2       7 UNK        -0.5186 
     49 N          27.5510    1.4056  -10.0412 N.am      8 UNK        -0.4240 
     50 CA         27.6951    0.8924  -11.4075 C.3       8 UNK         0.0235 
     51 CB         26.7091   -0.2637  -11.6363 C.3       8 UNK        -0.2000 
     52 C          29.1255    0.4628  -11.7707 C.2       8 UNK         0.4941 
     53 O          29.5892    0.7947  -12.8623 O.2       8 UNK        -0.5273 
     54 N          29.8056   -0.2402  -10.8541 N.am      9 UNK        -0.4262 
     55 CA         31.2031   -0.6582  -11.0107 C.3       9 UNK         0.0264 
     56 CB         31.3842   -2.0634  -10.4127 C.3       9 UNK        -0.1955 
     57 C          32.2068    0.3605  -10.4322 C.2       9 UNK         0.5031 
     58 O          33.4078    0.0882  -10.4576 O.2       9 UNK        -0.5390 
     59 N          31.7134    1.5155   -9.9567 N.am      10 UNK        -0.4204 
     60 CA         32.4645    2.6811   -9.4756 C.3       10 UNK         0.0237 
     61 CB         33.1914    3.3730  -10.6490 C.3       10 UNK        -0.1985 
     62 C          33.3928    2.3892   -8.2796 C.2       10 UNK         0.4970 
     63 O          34.5222    2.8832   -8.2428 O.2       10 UNK        -0.4914 
     64 N          32.8879    1.6219   -7.3077 N.am      11 UNK        -0.4285 
     65 CA         33.5096    1.4586   -5.9852 C.3       11 UNK         0.1007 
     66 C          33.1677    2.6333   -5.0268 C.2       11 UNK         0.5703 
     67 N          32.0242    3.2922   -5.1798 N.am      11 UNK        -0.7361 
     68 O          33.9551    2.9543   -4.1400 O.2       11 UNK        -0.4986 
     69 C69        33.1438    0.1062   -5.3261 C.3       12 UNK        -0.0947 
     70 S70        33.7781   -1.3294   -6.2561 S.3       12 UNK        -0.2240 
     71 C71        32.2332   -2.1440   -6.7891 C.3       12 UNK         0.0194 
     72 H72        25.9338   -3.2118   -1.2866 H         1 UNK         0.0906 
     73 H73        26.8939   -4.6986   -1.3314 H         1 UNK         0.0906 
     74 H74        25.2334   -4.7238   -0.7471 H         1 UNK         0.0906 
     75 H75        27.7862   -2.7918    1.8980 H         1 UNK         0.3140 
     76 H76        28.7464   -1.2901    0.6688 H         1 UNK         0.1085 
     77 H77        28.2191   -2.7796   -1.9441 H         1 UNK         0.0836 
     78 H78        29.4213   -1.5726   -1.6195 H         1 UNK         0.0836 
     79 H79        32.1985   -4.1197   -1.7373 H         1 UNK         0.0731 
     80 H80        31.8262   -2.4132   -1.7208 H         1 UNK         0.0731 
     81 H81        32.5991   -2.2460   -4.0040 H         1 UNK         0.1312 
     82 H82        30.0715   -3.6972   -7.1564 H         1 UNK         0.1406 
     83 H83        29.3060   -4.8160   -3.0981 H         1 UNK         0.1631 
     84 H84        28.1834   -5.9637   -4.8663 H         1 UNK         0.0717 
     85 H85        28.6127   -5.7218   -6.5310 H         1 UNK         0.0717 
     86 H86        27.7823   -4.2140   -8.0556 H         1 UNK         0.0934 
     87 H87        26.0644   -4.4308   -8.0598 H         1 UNK         0.0934 
     88 H88        26.5970   -2.3021   -9.0469 H         1 UNK         0.0739 
     89 H89        24.9043   -2.3737   -6.7868 H         1 UNK         0.3093 
     90 H90        23.7355    0.9380   -6.8786 H         1 UNK         0.0818 
     91 H91        21.5111    0.0640   -7.5280 H         1 UNK         0.0819 
     92 H92        22.5614    0.1169   -8.9322 H         1 UNK         0.0819 
     93 H93        22.2383   -1.4211   -8.1443 H         1 UNK         0.0819 
     94 H94        22.5034   -1.2336   -5.6374 H         1 UNK         0.3041 
     95 H95        22.6299   -1.1920   -3.3309 H         1 UNK         0.0784 
     96 H96        23.4821   -3.3565   -4.2679 H         1 UNK         0.0793 
     97 H97        25.0540   -3.0820   -3.5326 H         1 UNK         0.0793 
     98 H98        23.6352   -3.3584   -2.5204 H         1 UNK         0.0793 
     99 H99        25.3005   -0.3764   -2.4552 H         1 UNK         0.3024 
    100 H100       25.0690    1.0681   -0.4463 H         1 UNK         0.1171 
    101 H101       24.5934    1.0228    1.9888 H         1 UNK         0.0786 
    102 H102       23.0957    1.0984    1.0765 H         1 UNK         0.0786 
    103 H103       23.6021   -0.4230    1.7985 H         1 UNK         0.0786 
    104 H104       25.7910   -1.3048    1.1404 H         1 UNK         0.2977 
    105 H105       27.0593   -0.9944   -5.7814 H         1 UNK         0.3127 
    106 H106       29.8779   -0.5228   -6.0232 H         1 UNK         0.0770 
    107 H107       27.8118    0.8073   -4.2008 H         1 UNK         0.0814 
    108 H108       28.7359   -0.6465   -3.8283 H         1 UNK         0.0814 
    109 H109       29.5586    0.8939   -4.0170 H         1 UNK         0.0814 
    110 H110       27.0212    1.2684   -7.0522 H         1 UNK         0.2983 
    111 H111       28.5282    3.6763   -7.8101 H         1 UNK         0.0947 
    112 H112       26.1699    3.9060   -7.0729 H         1 UNK         0.0806 
    113 H113       25.6267    2.8518   -8.3759 H         1 UNK         0.0806 
    114 H114       26.3450    4.4122   -8.7450 H         1 UNK         0.0806 
    115 H115       26.8550    0.9451   -9.4561 H         1 UNK         0.3000 
    116 H116       27.4196    1.7057  -12.0823 H         1 UNK         0.0850 
    117 H117       26.7474   -0.6100  -12.6700 H         1 UNK         0.0810 
    118 H118       25.6823    0.0421  -11.4341 H         1 UNK         0.0810 
    119 H119       26.9368   -1.1172  -10.9990 H         1 UNK         0.0810 
    120 H120       29.3507   -0.5040   -9.9810 H         1 UNK         0.3040 
    121 H121       31.4396   -0.7368  -12.0739 H         1 UNK         0.0766 
    122 H122       31.0886   -2.0979   -9.3678 H         1 UNK         0.0812 
    123 H123       32.4219   -2.3940  -10.4737 H         1 UNK         0.0812 
    124 H124       30.7807   -2.7965  -10.9478 H         1 UNK         0.0812 
    125 H125       30.7102    1.6462   -9.9973 H         1 UNK         0.3205 
    126 H126       31.7154    3.3807   -9.1012 H         1 UNK         0.0754 
    127 H127       33.6464    4.3118  -10.3307 H         1 UNK         0.0769 
    128 H128       32.5000    3.6089  -11.4581 H         1 UNK         0.0769 
    129 H129       33.9857    2.7473  -11.0576 H         1 UNK         0.0769 
    130 H130       31.9111    1.3550   -7.3702 H         1 UNK         0.2981 
    131 H131       34.5943    1.4703   -6.1101 H         1 UNK         0.0541 
    132 H132       31.8057    4.0579   -4.5630 H         1 UNK         0.3459 
    133 H133       31.3470    2.9799   -5.8675 H         1 UNK         0.3459 
    134 H134       32.0634    0.0244   -5.1998 H         1 UNK         0.0612 
    135 H135       33.5703    0.0458   -4.3230 H         1 UNK         0.0612 
    136 H136       32.4993   -2.8623   -7.5654 H         1 UNK         0.0624 
    137 H137       31.5984   -1.3950   -7.2622 H         1 UNK         0.0624 
@<TRIPOS>BOND
     1    1    2 1    
     2    1   72 1    
     3    1   73 1    
     4    1   74 1    
     5    2    3 2    
     6    2    4 am   BACKBONE|DICT|INTERRES
     7    4    5 1    
     8    4   75 1    
     9    5    6 1    
    10    5   35 1    
    11    5   76 1    
    12    6    7 1    
    13    6   77 1    
    14    6   78 1    
    15    7    8 1    
    16    8    9 1    
    17    8   79 1    
    18    8   80 1    
    19    9   10 ar   
    20    9   14 ar   
    21   10   11 ar   
    22   10   81 1    
    23   11   12 ar   
    24   11   71 1    
    25   12   13 ar   
    26   12   82 1    
    27   13   14 ar   
    28   13   15 1    
    29   14   83 1    
    30   15   16 1    
    31   15   84 1    
    32   15   85 1    
    33   16   17 1    
    34   17   18 1    
    35   17   86 1    
    36   17   87 1    
    37   18   19 1    
    38   18   37 1    
    39   18   88 1    
    40   19   20 am   BACKBONE|DICT|INTERRES
    41   19   89 1    
    42   20   21 2    
    43   20   22 1    
    44   22   23 1    
    45   22   24 1    
    46   22   90 1    
    47   23   91 1    
    48   23   92 1    
    49   23   93 1    
    50   24   25 am   BACKBONE|DICT|INTERRES
    51   24   94 1    
    52   25   26 2    
    53   25   27 1    
    54   27   28 1    
    55   27   29 1    
    56   27   95 1    
    57   28   96 1    
    58   28   97 1    
    59   28   98 1    
    60   29   30 am   BACKBONE|DICT|INTERRES
    61   29   99 1    
    62   30   31 2    
    63   30   32 1    
    64   32   33 1    
    65   32   34 1    
    66   32  100 1    
    67   33  101 1    
    68   33  102 1    
    69   33  103 1    
    70   34   35 am   BACKBONE|DICT|INTERRES
    71   34  104 1    
    72   35   36 2    
    73   37   38 2    
    74   37   39 am   BACKBONE|DICT|INTERRES
    75   39   40 1    
    76   39  105 1    
    77   40   41 1    
    78   40   42 1    
    79   40  106 1    
    80   41  107 1    
    81   41  108 1    
    82   41  109 1    
    83   42   43 2    
    84   42   44 am   BACKBONE|DICT|INTERRES
    85   44   45 1    
    86   44  110 1    
    87   45   46 1    
    88   45   47 1    
    89   45  111 1    
    90   46  112 1    
    91   46  113 1    
    92   46  114 1    
    93   47   48 2    
    94   47   49 am   BACKBONE|DICT|INTERRES
    95   49   50 1    
    96   49  115 1    
    97   50   51 1    
    98   50   52 1    
    99   50  116 1    
   100   51  117 1    
   101   51  118 1    
   102   51  119 1    
   103   52   53 2    
   104   52   54 am   BACKBONE|DICT|INTERRES
   105   54   55 1    
   106   54  120 1    
   107   55   56 1    
   108   55   57 1    
   109   55  121 1    
   110   56  122 1    
   111   56  123 1    
   112   56  124 1    
   113   57   58 2    
   114   57   59 am   BACKBONE|DICT|INTERRES
   115   59   60 1    
   116   59  125 1    
   117   60   61 1    
   118   60   62 1    
   119   60  126 1    
   120   61  127 1    
   121   61  128 1    
   122   61  129 1    
   123   62   63 2    
   124   62   64 am   BACKBONE|DICT|INTERRES
   125   64   65 1    
   126   64  130 1    
   127   65   66 1    
   128   65   69 1    
   129   65  131 1    
   130   66   67 am   BACKBONE|DICT|INTERRES
   131   66   68 2    
   132   67  132 1    
   133   67  133 1    
   134   69   70 1    
   135   69  134 1    
   136   69  135 1    
   137   70   71 1    
   138   71  136 1    
   139   71  137 1    
@<TRIPOS>SUBSTRUCTURE
     1 UNK         1 GROUP             0       ****    0 ROOT    
