@<TRIPOS>MOLECULE
3R137
137   139    1
SMALL
USER_CHARGES


@<TRIPOS>ATOM
      1 CA         26.3001   -5.7907    1.0966 C.3       0 UNK        -0.2020 
      2 C          26.7318   -4.6234    0.2223 C.2       0 UNK         0.4855 
      3 O          26.8355   -3.4963    0.7091 O.2       0 UNK        -0.5197 
      4 N          26.9814   -4.8774   -1.0685 N.am      1 UNK        -0.4892 
      5 CA         27.3989   -3.8820   -2.0628 C.3       1 UNK         0.0835 
      6 C6         28.1905   -4.5308   -3.2296 C.3       12 UNK        -0.0855 
      7 S7         29.7165   -5.3593   -2.6535 S.3       12 UNK        -0.2931 
      8 C8         30.9634   -4.7716   -3.8542 C.3       12 UNK         0.0378 
      9 C9         31.6424   -3.4456   -3.4978 C.ar      12 UNK        -0.0802 
     10 C10        32.9666   -3.2290   -3.8959 C.ar      12 UNK        -0.0944 
     11 C11        33.6260   -2.0330   -3.5895 C.ar      12 UNK        -0.0787 
     12 C12        32.9451   -1.0411   -2.8751 C.ar      12 UNK        -0.0862 
     13 C13        31.6151   -1.2291   -2.4916 C.ar      12 UNK        -0.0733 
     14 C14        30.9768   -2.4315   -2.8011 C.ar      12 UNK        -0.0832 
     15 C15        30.8761   -0.1415   -1.7252 C.3       12 UNK         0.0240 
     16 S16        30.1291    1.0926   -2.8375 S.3       12 UNK        -0.2522 
     17 C17        28.5991    0.2633   -3.3927 C.3       12 UNK        -0.0967 
     18 CA         28.3345    0.4552   -4.9080 C.3       5 UNK         0.0660 
     19 N          27.3847   -0.5295   -5.4242 N.am      5 UNK        -0.4015 
     20 C          27.2430   -0.8375   -6.7206 C.2       4 UNK         0.4946 
     21 O          27.9724   -0.4092   -7.6164 O.2       4 UNK        -0.5353 
     22 CA         26.0728   -1.7614   -7.0904 C.3       4 UNK         0.0277 
     23 CB         26.5195   -3.2311   -7.0794 C.3       4 UNK        -0.1981 
     24 N          24.9097   -1.5780   -6.2166 N.am      4 UNK        -0.4209 
     25 C          24.1445   -0.4753   -6.2314 C.2       3 UNK         0.4942 
     26 O          24.3423    0.4783   -6.9815 O.2       3 UNK        -0.5208 
     27 CA         22.9905   -0.3889   -5.2201 C.3       3 UNK         0.0250 
     28 CB         21.7172   -1.0183   -5.8068 C.3       3 UNK        -0.1990 
     29 N          23.2794   -0.9952   -3.9198 N.am      3 UNK        -0.4232 
     30 C          24.3051   -0.6853   -3.1144 C.2       2 UNK         0.4993 
     31 O          25.1732    0.1449   -3.3951 O.2       2 UNK        -0.5286 
     32 CA         24.4033   -1.4541   -1.7823 C.3       2 UNK         0.0209 
     33 CB         23.1933   -2.3711   -1.4899 C.3       2 UNK        -0.1931 
     34 N          25.6403   -2.2336   -1.6607 N.am      2 UNK        -0.4546 
     35 C          26.1743   -3.0814   -2.5527 C.2       1 UNK         0.5154 
     36 O          25.7258   -3.2678   -3.6864 O.2       1 UNK        -0.5181 
     37 C          27.8399    1.8784   -5.2336 C.2       5 UNK         0.5014 
     38 O          28.5990    2.6713   -5.7908 O.2       5 UNK        -0.5248 
     39 N          26.5671    2.1625   -4.9130 N.am      6 UNK        -0.4434 
     40 CA         25.9204    3.4658   -5.1012 C.3       6 UNK         0.0363 
     41 CB         24.5066    3.4301   -4.5011 C.3       6 UNK        -0.1936 
     42 C          25.8737    3.9369   -6.5655 C.2       6 UNK         0.5081 
     43 O          26.1179    5.1148   -6.8279 O.2       6 UNK        -0.5248 
     44 N          25.5884    3.0138   -7.4936 N.am      7 UNK        -0.4718 
     45 CA         25.5905    3.2641   -8.9385 C.3       7 UNK         0.0273 
     46 CB         24.7110    2.2080   -9.6293 C.3       7 UNK        -0.1935 
     47 C          26.9993    3.2667   -9.5612 C.2       7 UNK         0.5018 
     48 O          27.1213    3.6094  -10.7380 O.2       7 UNK        -0.5186 
     49 N          28.0208    2.8602   -8.7898 N.am      8 UNK        -0.4240 
     50 CA         29.4163    2.6529   -9.1965 C.3       8 UNK         0.0235 
     51 CB         30.0959    3.9928   -9.5505 C.3       8 UNK        -0.2000 
     52 C          29.5660    1.5849  -10.2990 C.2       8 UNK         0.4941 
     53 O          30.4122    1.7225  -11.1850 O.2       8 UNK        -0.5273 
     54 N          28.7374    0.5345  -10.2196 N.am      9 UNK        -0.4262 
     55 CA         28.8358   -0.6661  -11.0492 C.3       9 UNK         0.0264 
     56 CB         27.4711   -1.3723  -11.0989 C.3       9 UNK        -0.1955 
     57 C          29.9213   -1.6040  -10.5004 C.2       9 UNK         0.5031 
     58 O          30.6839   -2.1776  -11.2797 O.2       9 UNK        -0.5390 
     59 N          29.9880   -1.7091   -9.1675 N.am      10 UNK        -0.4204 
     60 CA         31.0890   -2.3194   -8.4312 C.3       10 UNK         0.0237 
     61 CB         30.5442   -2.9003   -7.1165 C.3       10 UNK        -0.1985 
     62 C          32.1686   -1.2672   -8.1357 C.2       10 UNK         0.4970 
     63 O          31.8932   -0.0658   -8.1880 O.2       10 UNK        -0.4914 
     64 N          33.3656   -1.7487   -7.7796 N.am      11 UNK        -0.4285 
     65 CA         34.5156   -0.9399   -7.3390 C.3       11 UNK         0.1007 
     66 C          35.2292   -0.1302   -8.4649 C.2       11 UNK         0.5703 
     67 N          34.9479   -0.3805   -9.7383 N.am      11 UNK        -0.7361 
     68 O          36.0782    0.7134   -8.1868 O.2       11 UNK        -0.4986 
     69 C69        34.1795   -0.0862   -6.0761 C.3       12 UNK        -0.0947 
     70 S70        35.4364   -0.2020   -4.7610 S.3       12 UNK        -0.2240 
     71 C71        35.0773   -1.8364   -4.0235 C.3       12 UNK         0.0194 
     72 H72        25.3118   -5.6006    1.5144 H         1 UNK         0.0906 
     73 H73        26.2587   -6.7257    0.5381 H         1 UNK         0.0906 
     74 H74        27.0001   -5.9196    1.9218 H         1 UNK         0.0906 
     75 H75        26.8736   -5.8189   -1.4190 H         1 UNK         0.3140 
     76 H76        28.0579   -3.1677   -1.5671 H         1 UNK         0.1085 
     77 H77        28.4489   -3.7769   -3.9760 H         1 UNK         0.0836 
     78 H78        27.5764   -5.2686   -3.7497 H         1 UNK         0.0836 
     79 H79        30.5044   -4.6979   -4.8393 H         1 UNK         0.0731 
     80 H80        31.7225   -5.5514   -3.9340 H         1 UNK         0.0731 
     81 H81        33.4905   -4.0008   -4.4433 H         1 UNK         0.1312 
     82 H82        33.4461   -0.1147   -2.6296 H         1 UNK         0.1406 
     83 H83        29.9590   -2.5739   -2.4865 H         1 UNK         0.1631 
     84 H84        31.5730    0.3694   -1.0590 H         1 UNK         0.0717 
     85 H85        30.1074   -0.5724   -1.0816 H         1 UNK         0.0717 
     86 H86        28.6800   -0.7999   -3.1739 H         1 UNK         0.0934 
     87 H87        27.7637    0.6220   -2.7882 H         1 UNK         0.0934 
     88 H88        29.2790    0.3025   -5.4367 H         1 UNK         0.0739 
     89 H89        26.6934   -0.8761   -4.7721 H         1 UNK         0.3093 
     90 H90        25.7660   -1.5093   -8.1076 H         1 UNK         0.0818 
     91 H91        27.3337   -3.3935   -7.7868 H         1 UNK         0.0819 
     92 H92        25.7052   -3.8958   -7.3681 H         1 UNK         0.0819 
     93 H93        26.8745   -3.5426   -6.0969 H         1 UNK         0.0819 
     94 H94        24.7293   -2.2985   -5.5273 H         1 UNK         0.3041 
     95 H95        22.7910    0.6687   -5.0427 H         1 UNK         0.0784 
     96 H96        21.4668   -0.5672   -6.7683 H         1 UNK         0.0793 
     97 H97        21.8340   -2.0904   -5.9705 H         1 UNK         0.0793 
     98 H98        20.8603   -0.8691   -5.1496 H         1 UNK         0.0793 
     99 H99        22.6389   -1.7103   -3.6071 H         1 UNK         0.3024 
    100 H100       24.4371   -0.6903   -1.0035 H         1 UNK         0.1171 
    101 H101       23.2792   -2.8207   -0.5002 H         1 UNK         0.0786 
    102 H102       22.2558   -1.8132   -1.4996 H         1 UNK         0.0786 
    103 H103       23.1113   -3.1869   -2.2096 H         1 UNK         0.0786 
    104 H104       26.0807   -2.2092   -0.7464 H         1 UNK         0.2977 
    105 H105       26.0164    1.4475   -4.4407 H         1 UNK         0.3127 
    106 H106       26.5069    4.1972   -4.5414 H         1 UNK         0.0770 
    107 H107       23.8622    2.7339   -5.0368 H         1 UNK         0.0814 
    108 H108       24.0370    4.4132   -4.5534 H         1 UNK         0.0814 
    109 H109       24.5247    3.1336   -3.4521 H         1 UNK         0.0814 
    110 H110       25.3275    2.0748   -7.1977 H         1 UNK         0.2983 
    111 H111       25.1519    4.2470   -9.1248 H         1 UNK         0.0947 
    112 H112       24.6289    2.4034  -10.6993 H         1 UNK         0.0806 
    113 H113       23.6995    2.2053   -9.2227 H         1 UNK         0.0806 
    114 H114       25.1215    1.2040   -9.5123 H         1 UNK         0.0806 
    115 H115       27.8215    2.6382   -7.8212 H         1 UNK         0.3000 
    116 H116       29.9270    2.2472   -8.3212 H         1 UNK         0.0850 
    117 H117       31.1648    3.8548   -9.7176 H         1 UNK         0.0810 
    118 H118       29.9859    4.7171   -8.7435 H         1 UNK         0.0810 
    119 H119       29.6794    4.4324  -10.4572 H         1 UNK         0.0810 
    120 H120       28.1335    0.4730   -9.4062 H         1 UNK         0.3040 
    121 H121       29.1114   -0.3778  -12.0660 H         1 UNK         0.0766 
    122 H122       26.6981   -0.7130  -11.4942 H         1 UNK         0.0812 
    123 H123       27.1520   -1.7100  -10.1128 H         1 UNK         0.0812 
    124 H124       27.5121   -2.2496  -11.7457 H         1 UNK         0.0812 
    125 H125       29.3341   -1.1610   -8.6117 H         1 UNK         0.3205 
    126 H126       31.5288   -3.1259   -9.0220 H         1 UNK         0.0754 
    127 H127       31.3415   -3.3874   -6.5559 H         1 UNK         0.0769 
    128 H128       29.7730   -3.6481   -7.2999 H         1 UNK         0.0769 
    129 H129       30.1205   -2.1272   -6.4736 H         1 UNK         0.0769 
    130 H130       33.5115   -2.7478   -7.7790 H         1 UNK         0.2981 
    131 H131       35.2546   -1.6885   -7.0534 H         1 UNK         0.0541 
    132 H132       34.2577   -1.0715   -9.9840 H         1 UNK         0.3459 
    133 H133       35.4227    0.1393  -10.4594 H         1 UNK         0.3459 
    134 H134       34.0478    0.9661   -6.3343 H         1 UNK         0.0612 
    135 H135       33.2219   -0.3788   -5.6454 H         1 UNK         0.0612 
    136 H136       35.3674   -2.6045   -4.7417 H         1 UNK         0.0624 
    137 H137       35.7210   -1.9725   -3.1538 H         1 UNK         0.0624 
@<TRIPOS>BOND
     1    1    2 1    
     2    1   72 1    
     3    1   73 1    
     4    1   74 1    
     5    2    3 2    
     6    2    4 am   BACKBONE|DICT|INTERRES
     7    4    5 1    
     8    4   75 1    
     9    5    6 1    
    10    5   35 1    
    11    5   76 1    
    12    6    7 1    
    13    6   77 1    
    14    6   78 1    
    15    7    8 1    
    16    8    9 1    
    17    8   79 1    
    18    8   80 1    
    19    9   10 ar   
    20    9   14 ar   
    21   10   11 ar   
    22   10   81 1    
    23   11   12 ar   
    24   11   71 1    
    25   12   13 ar   
    26   12   82 1    
    27   13   14 ar   
    28   13   15 1    
    29   14   83 1    
    30   15   16 1    
    31   15   84 1    
    32   15   85 1    
    33   16   17 1    
    34   17   18 1    
    35   17   86 1    
    36   17   87 1    
    37   18   19 1    
    38   18   37 1    
    39   18   88 1    
    40   19   20 am   BACKBONE|DICT|INTERRES
    41   19   89 1    
    42   20   21 2    
    43   20   22 1    
    44   22   23 1    
    45   22   24 1    
    46   22   90 1    
    47   23   91 1    
    48   23   92 1    
    49   23   93 1    
    50   24   25 am   BACKBONE|DICT|INTERRES
    51   24   94 1    
    52   25   26 2    
    53   25   27 1    
    54   27   28 1    
    55   27   29 1    
    56   27   95 1    
    57   28   96 1    
    58   28   97 1    
    59   28   98 1    
    60   29   30 am   BACKBONE|DICT|INTERRES
    61   29   99 1    
    62   30   31 2    
    63   30   32 1    
    64   32   33 1    
    65   32   34 1    
    66   32  100 1    
    67   33  101 1    
    68   33  102 1    
    69   33  103 1    
    70   34   35 am   BACKBONE|DICT|INTERRES
    71   34  104 1    
    72   35   36 2    
    73   37   38 2    
    74   37   39 am   BACKBONE|DICT|INTERRES
    75   39   40 1    
    76   39  105 1    
    77   40   41 1    
    78   40   42 1    
    79   40  106 1    
    80   41  107 1    
    81   41  108 1    
    82   41  109 1    
    83   42   43 2    
    84   42   44 am   BACKBONE|DICT|INTERRES
    85   44   45 1    
    86   44  110 1    
    87   45   46 1    
    88   45   47 1    
    89   45  111 1    
    90   46  112 1    
    91   46  113 1    
    92   46  114 1    
    93   47   48 2    
    94   47   49 am   BACKBONE|DICT|INTERRES
    95   49   50 1    
    96   49  115 1    
    97   50   51 1    
    98   50   52 1    
    99   50  116 1    
   100   51  117 1    
   101   51  118 1    
   102   51  119 1    
   103   52   53 2    
   104   52   54 am   BACKBONE|DICT|INTERRES
   105   54   55 1    
   106   54  120 1    
   107   55   56 1    
   108   55   57 1    
   109   55  121 1    
   110   56  122 1    
   111   56  123 1    
   112   56  124 1    
   113   57   58 2    
   114   57   59 am   BACKBONE|DICT|INTERRES
   115   59   60 1    
   116   59  125 1    
   117   60   61 1    
   118   60   62 1    
   119   60  126 1    
   120   61  127 1    
   121   61  128 1    
   122   61  129 1    
   123   62   63 2    
   124   62   64 am   BACKBONE|DICT|INTERRES
   125   64   65 1    
   126   64  130 1    
   127   65   66 1    
   128   65   69 1    
   129   65  131 1    
   130   66   67 am   BACKBONE|DICT|INTERRES
   131   66   68 2    
   132   67  132 1    
   133   67  133 1    
   134   69   70 1    
   135   69  134 1    
   136   69  135 1    
   137   70   71 1    
   138   71  136 1    
   139   71  137 1    
@<TRIPOS>SUBSTRUCTURE
     1 UNK         1 GROUP             0       ****    0 ROOT    
