@<TRIPOS>MOLECULE
3R137
137   139    1
SMALL
USER_CHARGES


@<TRIPOS>ATOM
      1 CA         29.7508   -5.0927   -4.9086 C.3       0 UNK        -0.2020 
      2 C          28.5367   -4.9242   -4.0076 C.2       0 UNK         0.4855 
      3 O          27.4513   -5.4000   -4.3420 O.2       0 UNK        -0.5197 
      4 N          28.7174   -4.2570   -2.8626 N.am      1 UNK        -0.4892 
      5 CA         27.6621   -3.9431   -1.8967 C.3       1 UNK         0.0835 
      6 C6         28.2227   -3.9294   -0.4399 C.3       12 UNK        -0.0855 
      7 S7         28.9114   -2.3545    0.1966 S.3       12 UNK        -0.2931 
      8 C8         30.7132   -2.5688   -0.0245 C.3       12 UNK         0.0378 
      9 C9         31.1782   -2.5089   -1.4781 C.ar      12 UNK        -0.0802 
     10 C10        32.2807   -3.2688   -1.8830 C.ar      12 UNK        -0.0944 
     11 C11        32.7201   -3.2454   -3.2118 C.ar      12 UNK        -0.0787 
     12 C12        32.0281   -2.4675   -4.1454 C.ar      12 UNK        -0.0862 
     13 C13        30.9409   -1.6857   -3.7503 C.ar      12 UNK        -0.0733 
     14 C14        30.5349   -1.6943   -2.4159 C.ar      12 UNK        -0.0832 
     15 C15        30.1637   -0.8747   -4.7692 C.3       12 UNK         0.0240 
     16 S16        30.2568    0.9160   -4.4461 S.3       12 UNK        -0.2522 
     17 C17        28.5091    1.3507   -4.1284 C.3       12 UNK        -0.0967 
     18 CA         27.6782    1.3201   -5.4371 C.3       5 UNK         0.0660 
     19 N          27.0680    0.0088   -5.6747 N.am      5 UNK        -0.4015 
     20 C          26.6815   -0.4170   -6.8838 C.2       4 UNK         0.4946 
     21 O          26.7313    0.2800   -7.8967 O.2       4 UNK        -0.5353 
     22 CA         26.1315   -1.8454   -6.9738 C.3       4 UNK         0.0277 
     23 CB         27.2698   -2.8735   -6.8912 C.3       4 UNK        -0.1981 
     24 N          25.1500   -2.1081   -5.9226 N.am      4 UNK        -0.4209 
     25 C          23.8981   -1.6291   -5.9312 C.2       3 UNK         0.4942 
     26 O          23.4237   -0.9636   -6.8520 O.2       3 UNK        -0.5208 
     27 CA         23.0322   -1.9238   -4.6938 C.3       3 UNK         0.0250 
     28 CB         22.3066   -3.2697   -4.8508 C.3       3 UNK        -0.1990 
     29 N          23.7817   -1.9160   -3.4333 N.am      3 UNK        -0.4232 
     30 C          24.4181   -0.8466   -2.9352 C.2       2 UNK         0.4993 
     31 O          24.4774    0.2425   -3.5018 O.2       2 UNK        -0.5286 
     32 CA         25.1530   -1.0327   -1.6008 C.3       2 UNK         0.0209 
     33 CB         24.1787   -0.8981   -0.4198 C.3       2 UNK        -0.1931 
     34 N          25.8874   -2.2971   -1.4941 N.am      2 UNK        -0.4546 
     35 C          26.8860   -2.6679   -2.3083 C.2       1 UNK         0.5154 
     36 O          27.2002   -2.0336   -3.3224 O.2       1 UNK        -0.5181 
     37 C          26.6622    2.4752   -5.5569 C.2       5 UNK         0.5014 
     38 O          27.0584    3.5660   -5.9677 O.2       5 UNK        -0.5248 
     39 N          25.3688    2.2194   -5.3061 N.am      6 UNK        -0.4434 
     40 CA         24.2647    3.1327   -5.6303 C.3       6 UNK         0.0363 
     41 CB         22.9523    2.5845   -5.0479 C.3       6 UNK        -0.1936 
     42 C          24.1078    3.3916   -7.1425 C.2       6 UNK         0.5081 
     43 O          23.6532    4.4698   -7.5242 O.2       6 UNK        -0.5248 
     44 N          24.5129    2.4204   -7.9726 N.am      7 UNK        -0.4718 
     45 CA         24.5857    2.5276   -9.4327 C.3       7 UNK         0.0273 
     46 CB         24.1741    1.1767  -10.0453 C.3       7 UNK        -0.1935 
     47 C          25.9858    2.9571   -9.9202 C.2       7 UNK         0.5018 
     48 O          26.2201    2.9616  -11.1293 O.2       7 UNK        -0.5186 
     49 N          26.8879    3.2968   -8.9847 N.am      8 UNK        -0.4240 
     50 CA         28.2874    3.6978   -9.1718 C.3       8 UNK         0.0235 
     51 CB         28.3881    5.0055   -9.9860 C.3       8 UNK        -0.2000 
     52 C          29.2042    2.5866   -9.7219 C.2       8 UNK         0.4941 
     53 O          30.2972    2.8928  -10.2038 O.2       8 UNK        -0.5273 
     54 N          28.7946    1.3148   -9.6120 N.am      9 UNK        -0.4262 
     55 CA         29.5733    0.1506  -10.0392 C.3       9 UNK         0.0264 
     56 CB         28.6126   -0.9847  -10.4394 C.3       9 UNK        -0.1955 
     57 C          30.5746   -0.2631   -8.9454 C.2       9 UNK         0.5031 
     58 O          30.4572   -1.3495   -8.3757 O.2       9 UNK        -0.5390 
     59 N          31.5285    0.6324   -8.6574 N.am      10 UNK        -0.4204 
     60 CA         32.6168    0.4403   -7.6962 C.3       10 UNK         0.0237 
     61 CB         33.3777    1.7645   -7.5250 C.3       10 UNK        -0.1985 
     62 C          33.5733   -0.6846   -8.1258 C.2       10 UNK         0.4970 
     63 O          33.8739   -0.8059   -9.3164 O.2       10 UNK        -0.4914 
     64 N          34.0406   -1.4703   -7.1494 N.am      11 UNK        -0.4285 
     65 CA         34.9997   -2.5635   -7.3547 C.3       11 UNK         0.1007 
     66 C          36.4644   -2.0665   -7.5189 C.2       11 UNK         0.5703 
     67 N          37.3476   -2.9083   -8.0396 N.am      11 UNK        -0.7361 
     68 O          36.8135   -0.9395   -7.1700 O.2       11 UNK        -0.4986 
     69 C69        34.8463   -3.6724   -6.2780 C.3       12 UNK        -0.0947 
     70 S70        35.1718   -3.1373   -4.5598 S.3       12 UNK        -0.2240 
     71 C71        33.9205   -4.0885   -3.6302 C.3       12 UNK         0.0194 
     72 H72        30.6736   -5.1160   -4.3298 H         1 UNK         0.0906 
     73 H73        29.6841   -6.0261   -5.4670 H         1 UNK         0.0906 
     74 H74        29.8113   -4.2715   -5.6221 H         1 UNK         0.0906 
     75 H75        29.6127   -3.8246   -2.6740 H         1 UNK         0.3140 
     76 H76        26.9326   -4.7554   -1.9400 H         1 UNK         0.1085 
     77 H77        27.4160   -4.2002    0.2432 H         1 UNK         0.0836 
     78 H78        28.9622   -4.7221   -0.3129 H         1 UNK         0.0836 
     79 H79        31.0134   -3.5116    0.4358 H         1 UNK         0.0731 
     80 H80        31.2243   -1.7798    0.5285 H         1 UNK         0.0731 
     81 H81        32.7977   -3.8849   -1.1595 H         1 UNK         0.1312 
     82 H82        32.3306   -2.4782   -5.1819 H         1 UNK         0.1406 
     83 H83        29.6909   -1.0845   -2.1235 H         1 UNK         0.1631 
     84 H84        29.1352   -1.2197   -4.7501 H         1 UNK         0.0717 
     85 H85        30.5199   -1.0751   -5.7780 H         1 UNK         0.0717 
     86 H86        28.0893    0.6926   -3.3651 H         1 UNK         0.0934 
     87 H87        28.5161    2.3492   -3.6864 H         1 UNK         0.0934 
     88 H88        28.3684    1.4946   -6.2669 H         1 UNK         0.0739 
     89 H89        26.9869   -0.6160   -4.8791 H         1 UNK         0.3093 
     90 H90        25.6439   -1.9554   -7.9451 H         1 UNK         0.0818 
     91 H91        27.7800   -2.8292   -5.9301 H         1 UNK         0.0819 
     92 H92        26.8985   -3.8897   -7.0244 H         1 UNK         0.0819 
     93 H93        28.0200   -2.6974   -7.6629 H         1 UNK         0.0819 
     94 H94        25.4702   -2.6192   -5.1115 H         1 UNK         0.3041 
     95 H95        22.2786   -1.1355   -4.6313 H         1 UNK         0.0784 
     96 H96        21.7238   -3.2930   -5.7729 H         1 UNK         0.0793 
     97 H97        23.0065   -4.1056   -4.8865 H         1 UNK         0.0793 
     98 H98        21.6134   -3.4457   -4.0280 H         1 UNK         0.0793 
     99 H99        23.8001   -2.7747   -2.9024 H         1 UNK         0.3024 
    100 H100       25.8867   -0.2264   -1.5278 H         1 UNK         0.1171 
    101 H101       23.6311    0.0443   -0.4715 H         1 UNK         0.0786 
    102 H102       24.7074   -0.9101    0.5335 H         1 UNK         0.0786 
    103 H103       23.4425   -1.7027   -0.4065 H         1 UNK         0.0786 
    104 H104       25.6929   -2.8610   -0.6793 H         1 UNK         0.2977 
    105 H105       25.1097    1.3365   -4.8685 H         1 UNK         0.3127 
    106 H106       24.4752    4.0927   -5.1543 H         1 UNK         0.0770 
    107 H107       22.7172    1.5968   -5.4471 H         1 UNK         0.0814 
    108 H108       22.1137    3.2415   -5.2826 H         1 UNK         0.0814 
    109 H109       23.0042    2.5037   -3.9621 H         1 UNK         0.0814 
    110 H110       24.8928    1.5684   -7.5779 H         1 UNK         0.2983 
    111 H111       23.8803    3.2849   -9.7815 H         1 UNK         0.0947 
    112 H112       24.1363    1.2341  -11.1339 H         1 UNK         0.0806 
    113 H113       23.1850    0.8713   -9.7036 H         1 UNK         0.0806 
    114 H114       24.8754    0.3830   -9.7861 H         1 UNK         0.0806 
    115 H115       26.5886    3.2602   -8.0173 H         1 UNK         0.3000 
    116 H116       28.6654    3.9127   -8.1713 H         1 UNK         0.0850 
    117 H117       29.4077    5.3928   -9.9812 H         1 UNK         0.0810 
    118 H118       27.7475    5.7828   -9.5694 H         1 UNK         0.0810 
    119 H119       28.1042    4.8577  -11.0282 H         1 UNK         0.0810 
    120 H120       27.9236    1.1131   -9.1248 H         1 UNK         0.3040 
    121 H121       30.1527    0.4097  -10.9280 H         1 UNK         0.0766 
    122 H122       27.9506   -0.6749  -11.2481 H         1 UNK         0.0812 
    123 H123       27.9901   -1.3053   -9.6055 H         1 UNK         0.0812 
    124 H124       29.1652   -1.8581  -10.7875 H         1 UNK         0.0812 
    125 H125       31.5244    1.4990   -9.1842 H         1 UNK         0.3205 
    126 H126       32.1736    0.1763   -6.7362 H         1 UNK         0.0754 
    127 H127       34.1859    1.6599   -6.7995 H         1 UNK         0.0769 
    128 H128       32.7199    2.5556   -7.1639 H         1 UNK         0.0769 
    129 H129       33.8228    2.0981   -8.4634 H         1 UNK         0.0769 
    130 H130       33.8235   -1.2548   -6.1884 H         1 UNK         0.2981 
    131 H131       34.7419   -3.0309   -8.3075 H         1 UNK         0.0541 
    132 H132       37.0791   -3.8367   -8.3263 H         1 UNK         0.3459 
    133 H133       38.3037   -2.6080   -8.1484 H         1 UNK         0.3459 
    134 H134       33.8357   -4.0782   -6.3402 H         1 UNK         0.0612 
    135 H135       35.5075   -4.5117   -6.4995 H         1 UNK         0.0612 
    136 H136       34.4134   -4.5017   -2.7490 H         1 UNK         0.0624 
    137 H137       33.5779   -4.9456   -4.2109 H         1 UNK         0.0624 
@<TRIPOS>BOND
     1    1    2 1    
     2    1   72 1    
     3    1   73 1    
     4    1   74 1    
     5    2    3 2    
     6    2    4 am   BACKBONE|DICT|INTERRES
     7    4    5 1    
     8    4   75 1    
     9    5    6 1    
    10    5   35 1    
    11    5   76 1    
    12    6    7 1    
    13    6   77 1    
    14    6   78 1    
    15    7    8 1    
    16    8    9 1    
    17    8   79 1    
    18    8   80 1    
    19    9   10 ar   
    20    9   14 ar   
    21   10   11 ar   
    22   10   81 1    
    23   11   12 ar   
    24   11   71 1    
    25   12   13 ar   
    26   12   82 1    
    27   13   14 ar   
    28   13   15 1    
    29   14   83 1    
    30   15   16 1    
    31   15   84 1    
    32   15   85 1    
    33   16   17 1    
    34   17   18 1    
    35   17   86 1    
    36   17   87 1    
    37   18   19 1    
    38   18   37 1    
    39   18   88 1    
    40   19   20 am   BACKBONE|DICT|INTERRES
    41   19   89 1    
    42   20   21 2    
    43   20   22 1    
    44   22   23 1    
    45   22   24 1    
    46   22   90 1    
    47   23   91 1    
    48   23   92 1    
    49   23   93 1    
    50   24   25 am   BACKBONE|DICT|INTERRES
    51   24   94 1    
    52   25   26 2    
    53   25   27 1    
    54   27   28 1    
    55   27   29 1    
    56   27   95 1    
    57   28   96 1    
    58   28   97 1    
    59   28   98 1    
    60   29   30 am   BACKBONE|DICT|INTERRES
    61   29   99 1    
    62   30   31 2    
    63   30   32 1    
    64   32   33 1    
    65   32   34 1    
    66   32  100 1    
    67   33  101 1    
    68   33  102 1    
    69   33  103 1    
    70   34   35 am   BACKBONE|DICT|INTERRES
    71   34  104 1    
    72   35   36 2    
    73   37   38 2    
    74   37   39 am   BACKBONE|DICT|INTERRES
    75   39   40 1    
    76   39  105 1    
    77   40   41 1    
    78   40   42 1    
    79   40  106 1    
    80   41  107 1    
    81   41  108 1    
    82   41  109 1    
    83   42   43 2    
    84   42   44 am   BACKBONE|DICT|INTERRES
    85   44   45 1    
    86   44  110 1    
    87   45   46 1    
    88   45   47 1    
    89   45  111 1    
    90   46  112 1    
    91   46  113 1    
    92   46  114 1    
    93   47   48 2    
    94   47   49 am   BACKBONE|DICT|INTERRES
    95   49   50 1    
    96   49  115 1    
    97   50   51 1    
    98   50   52 1    
    99   50  116 1    
   100   51  117 1    
   101   51  118 1    
   102   51  119 1    
   103   52   53 2    
   104   52   54 am   BACKBONE|DICT|INTERRES
   105   54   55 1    
   106   54  120 1    
   107   55   56 1    
   108   55   57 1    
   109   55  121 1    
   110   56  122 1    
   111   56  123 1    
   112   56  124 1    
   113   57   58 2    
   114   57   59 am   BACKBONE|DICT|INTERRES
   115   59   60 1    
   116   59  125 1    
   117   60   61 1    
   118   60   62 1    
   119   60  126 1    
   120   61  127 1    
   121   61  128 1    
   122   61  129 1    
   123   62   63 2    
   124   62   64 am   BACKBONE|DICT|INTERRES
   125   64   65 1    
   126   64  130 1    
   127   65   66 1    
   128   65   69 1    
   129   65  131 1    
   130   66   67 am   BACKBONE|DICT|INTERRES
   131   66   68 2    
   132   67  132 1    
   133   67  133 1    
   134   69   70 1    
   135   69  134 1    
   136   69  135 1    
   137   70   71 1    
   138   71  136 1    
   139   71  137 1    
@<TRIPOS>SUBSTRUCTURE
     1 UNK         1 GROUP             0       ****    0 ROOT    
