@<TRIPOS>MOLECULE
3R137
137   139    1
SMALL
USER_CHARGES


@<TRIPOS>ATOM
      1 CA         29.9013   -8.7055   -2.7135 C.3       0 UNK        -0.2020 
      2 C          29.4554   -7.5828   -1.7892 C.2       0 UNK         0.4855 
      3 O          29.0907   -7.8414   -0.6423 O.2       0 UNK        -0.5197 
      4 N          29.4753   -6.3367   -2.2798 N.am      1 UNK        -0.4892 
      5 CA         29.0795   -5.1305   -1.5387 C.3       1 UNK         0.0835 
      6 C6         29.7938   -3.8662   -2.0821 C.3       12 UNK        -0.0855 
      7 S7         29.5427   -3.5709   -3.8680 S.3       12 UNK        -0.2931 
      8 C8         28.3535   -2.1966   -3.8230 C.3       12 UNK         0.0378 
      9 C9         28.9803   -0.8798   -3.3959 C.ar      12 UNK        -0.0802 
     10 C10        29.9372   -0.2588   -4.2024 C.ar      12 UNK        -0.0944 
     11 C11        30.4608    0.9893   -3.8535 C.ar      12 UNK        -0.0787 
     12 C12        30.0195    1.6187   -2.6863 C.ar      12 UNK        -0.0862 
     13 C13        29.0343    1.0219   -1.8933 C.ar      12 UNK        -0.0733 
     14 C14        28.5383   -0.2387   -2.2371 C.ar      12 UNK        -0.0832 
     15 C15        28.4206    1.7810   -0.7295 C.3       12 UNK         0.0240 
     16 S16        26.7159    2.2968   -1.1272 S.3       12 UNK        -0.2522 
     17 C17        26.9690    3.4389   -2.5331 C.3       12 UNK        -0.0967 
     18 CA         26.8984    2.7587   -3.9323 C.3       5 UNK         0.0660 
     19 N          25.6566    2.0047   -4.1281 N.am      5 UNK        -0.4015 
     20 C          25.4994    0.9966   -4.9955 C.2       4 UNK         0.4946 
     21 O          26.3814    0.6051   -5.7643 O.2       4 UNK        -0.5353 
     22 CA         24.1046    0.3506   -5.0505 C.3       4 UNK         0.0277 
     23 CB         23.2516    1.0297   -6.1350 C.3       4 UNK        -0.1981 
     24 N          24.1776   -1.0866   -5.3290 N.am      4 UNK        -0.4209 
     25 C          24.6936   -1.9967   -4.4920 C.2       3 UNK         0.4942 
     26 O          25.0917   -1.7233   -3.3573 O.2       3 UNK        -0.5208 
     27 CA         24.7593   -3.4467   -5.0170 C.3       3 UNK         0.0250 
     28 CB         25.6093   -3.5724   -6.2964 C.3       3 UNK        -0.1990 
     29 N          25.2803   -4.3840   -4.0172 N.am      3 UNK        -0.4232 
     30 C          24.5785   -4.8727   -2.9862 C.2       2 UNK         0.4993 
     31 O          23.3892   -4.6178   -2.7875 O.2       2 UNK        -0.5286 
     32 CA         25.3013   -5.8376   -2.0297 C.3       2 UNK         0.0209 
     33 CB         24.8469   -7.2843   -2.2894 C.3       2 UNK        -0.1931 
     34 N          26.7647   -5.7842   -2.1224 N.am      2 UNK        -0.4546 
     35 C          27.5462   -4.9475   -1.4234 C.2       1 UNK         0.5154 
     36 O          27.1009   -4.0681   -0.6848 O.2       1 UNK        -0.5181 
     37 C          27.1046    3.7706   -5.0795 C.2       5 UNK         0.5014 
     38 O          26.9452    4.9755   -4.8704 O.2       5 UNK        -0.5248 
     39 N          27.4085    3.2682   -6.2816 N.am      6 UNK        -0.4434 
     40 CA         27.5110    4.0469   -7.5124 C.3       6 UNK         0.0363 
     41 CB         26.0937    4.2812   -8.0779 C.3       6 UNK        -0.1936 
     42 C          28.4005    3.3310   -8.5369 C.2       6 UNK         0.5081 
     43 O          28.8144    2.1860   -8.3265 O.2       6 UNK        -0.5248 
     44 N          28.6206    4.0028   -9.6756 N.am      7 UNK        -0.4718 
     45 CA         29.3360    3.4986  -10.8562 C.3       7 UNK         0.0273 
     46 CB         29.5297    4.6529  -11.8532 C.3       7 UNK        -0.1935 
     47 C          28.6665    2.2920  -11.5472 C.2       7 UNK         0.5018 
     48 O          29.2978    1.6591  -12.3926 O.2       7 UNK        -0.5186 
     49 N          27.4221    1.9724  -11.1632 N.am      8 UNK        -0.4240 
     50 CA         26.7440    0.7160  -11.4882 C.3       8 UNK         0.0235 
     51 CB         25.2762    0.7993  -11.0376 C.3       8 UNK        -0.2000 
     52 C          27.4349   -0.5062  -10.8521 C.2       8 UNK         0.4941 
     53 O          27.4361   -1.5767  -11.4610 O.2       8 UNK        -0.5273 
     54 N          28.0170   -0.3204   -9.6579 N.am      9 UNK        -0.4262 
     55 CA         28.8445   -1.3112   -8.9726 C.3       9 UNK         0.0264 
     56 CB         28.5849   -1.2405   -7.4619 C.3       9 UNK        -0.1955 
     57 C          30.3318   -1.0867   -9.2817 C.2       9 UNK         0.5031 
     58 O          31.0237   -2.0555   -9.5963 O.2       9 UNK        -0.5390 
     59 N          30.7820    0.1788   -9.2052 N.am      10 UNK        -0.4204 
     60 CA         32.1436    0.6564   -9.4952 C.3       10 UNK         0.0237 
     61 CB         32.4377    0.5826  -11.0088 C.3       10 UNK        -0.1985 
     62 C          33.2242   -0.0484   -8.6498 C.2       10 UNK         0.4970 
     63 O          34.1166   -0.7019   -9.1951 O.2       10 UNK        -0.4914 
     64 N          33.1027    0.0880   -7.3248 N.am      11 UNK        -0.4285 
     65 CA         34.0415   -0.4403   -6.3246 C.3       11 UNK         0.1007 
     66 C          35.4826    0.1403   -6.4338 C.2       11 UNK         0.5703 
     67 N          36.4787   -0.5837   -5.9405 N.am      11 UNK        -0.7361 
     68 O          35.7036    1.2437   -6.9313 O.2       11 UNK        -0.4986 
     69 C69        33.4603   -0.3175   -4.8892 C.3       12 UNK        -0.0947 
     70 S70        33.1745    1.3986   -4.3227 S.3       12 UNK        -0.2240 
     71 C71        31.4378    1.6976   -4.7775 C.3       12 UNK         0.0194 
     72 H72        30.1940   -8.3342   -3.6956 H         1 UNK         0.0906 
     73 H73        30.7537   -9.2298   -2.2821 H         1 UNK         0.0906 
     74 H74        29.0930   -9.4236   -2.8493 H         1 UNK         0.0906 
     75 H75        29.7860   -6.1712   -3.2282 H         1 UNK         0.3140 
     76 H76        29.4224   -5.2573   -0.5089 H         1 UNK         0.1085 
     77 H77        30.8681   -3.9686   -1.9212 H         1 UNK         0.0836 
     78 H78        29.5065   -2.9830   -1.5085 H         1 UNK         0.0836 
     79 H79        27.5335   -2.4688   -3.1592 H         1 UNK         0.0731 
     80 H80        27.9159   -2.0586   -4.8094 H         1 UNK         0.0731 
     81 H81        30.2556   -0.7422   -5.1144 H         1 UNK         0.1312 
     82 H82        30.3970    2.5997   -2.4316 H         1 UNK         0.1406 
     83 H83        27.7592   -0.6891   -1.6360 H         1 UNK         0.1631 
     84 H84        29.0171    2.6568   -0.4693 H         1 UNK         0.0717 
     85 H85        28.4049    1.1417    0.1544 H         1 UNK         0.0717 
     86 H86        26.2089    4.2185   -2.4526 H         1 UNK         0.0934 
     87 H87        27.9274    3.9460   -2.4058 H         1 UNK         0.0934 
     88 H88        27.7208    2.0495   -4.0063 H         1 UNK         0.0739 
     89 H89        24.8787    2.2813   -3.5477 H         1 UNK         0.3093 
     90 H90        23.6157    0.4823   -4.0827 H         1 UNK         0.0818 
     91 H91        23.1510    2.0988   -5.9424 H         1 UNK         0.0819 
     92 H92        23.6964    0.9196   -7.1252 H         1 UNK         0.0819 
     93 H93        22.2449    0.6127   -6.1695 H         1 UNK         0.0819 
     94 H94        23.8941   -1.3796   -6.2520 H         1 UNK         0.3041 
     95 H95        23.7364   -3.7398   -5.2640 H         1 UNK         0.0784 
     96 H96        25.2966   -2.8679   -7.0677 H         1 UNK         0.0793 
     97 H97        26.6667   -3.3996   -6.1050 H         1 UNK         0.0793 
     98 H98        25.5169   -4.5701   -6.7262 H         1 UNK         0.0793 
     99 H99        26.2579   -4.6240   -4.0804 H         1 UNK         0.3024 
    100 H100       24.9993   -5.5652   -1.0154 H         1 UNK         0.1171 
    101 H101       25.1137   -7.6185   -3.2928 H         1 UNK         0.0786 
    102 H102       25.2949   -7.9749   -1.5744 H         1 UNK         0.0786 
    103 H103       23.7643   -7.3780   -2.1919 H         1 UNK         0.0786 
    104 H104       27.2166   -6.4820   -2.6955 H         1 UNK         0.2977 
    105 H105       27.5054    2.2610   -6.3868 H         1 UNK         0.3127 
    106 H106       27.9798    5.0080   -7.2905 H         1 UNK         0.0770 
    107 H107       25.5960    3.3398   -8.3148 H         1 UNK         0.0814 
    108 H108       26.1129    4.8822   -8.9875 H         1 UNK         0.0814 
    109 H109       25.4655    4.8149   -7.3644 H         1 UNK         0.0814 
    110 H110       28.2411    4.9357   -9.7581 H         1 UNK         0.2983 
    111 H111       30.3215    3.1640  -10.5261 H         1 UNK         0.0947 
    112 H112       30.0945    4.3250  -12.7273 H         1 UNK         0.0806 
    113 H113       30.0846    5.4772  -11.4048 H         1 UNK         0.0806 
    114 H114       28.5755    5.0427  -12.2100 H         1 UNK         0.0806 
    115 H115       26.9690    2.5759  -10.4940 H         1 UNK         0.3000 
    116 H116       26.7687    0.5875  -12.5725 H         1 UNK         0.0850 
    117 H117       25.1898    0.9398   -9.9591 H         1 UNK         0.0810 
    118 H118       24.7398   -0.1165  -11.2902 H         1 UNK         0.0810 
    119 H119       24.7560    1.6227  -11.5274 H         1 UNK         0.0810 
    120 H120       27.9894    0.6022   -9.2377 H         1 UNK         0.3040 
    121 H121       28.5758   -2.3150   -9.3092 H         1 UNK         0.0766 
    122 H122       28.8403   -0.2653   -7.0462 H         1 UNK         0.0812 
    123 H123       27.5349   -1.4240   -7.2375 H         1 UNK         0.0812 
    124 H124       29.1705   -1.9931   -6.9327 H         1 UNK         0.0812 
    125 H125       30.1240    0.8904   -8.8951 H         1 UNK         0.3205 
    126 H126       32.1698    1.7095   -9.2105 H         1 UNK         0.0754 
    127 H127       33.4318    0.9711  -11.2338 H         1 UNK         0.0769 
    128 H128       31.7276    1.1759  -11.5818 H         1 UNK         0.0769 
    129 H129       32.3962   -0.4411  -11.3823 H         1 UNK         0.0769 
    130 H130       32.3589    0.6626   -6.9639 H         1 UNK         0.2981 
    131 H131       34.1287   -1.5072   -6.5400 H         1 UNK         0.0541 
    132 H132       37.4180   -0.2213   -5.9906 H         1 UNK         0.3459 
    133 H133       36.3120   -1.4849   -5.5205 H         1 UNK         0.3459 
    134 H134       34.1354   -0.7902   -4.1739 H         1 UNK         0.0612 
    135 H135       32.5356   -0.8874   -4.8170 H         1 UNK         0.0612 
    136 H136       31.2552    2.7727   -4.7402 H         1 UNK         0.0624 
    137 H137       31.2574    1.4060   -5.8117 H         1 UNK         0.0624 
@<TRIPOS>BOND
     1    1    2 1    
     2    1   72 1    
     3    1   73 1    
     4    1   74 1    
     5    2    3 2    
     6    2    4 am   BACKBONE|DICT|INTERRES
     7    4    5 1    
     8    4   75 1    
     9    5    6 1    
    10    5   35 1    
    11    5   76 1    
    12    6    7 1    
    13    6   77 1    
    14    6   78 1    
    15    7    8 1    
    16    8    9 1    
    17    8   79 1    
    18    8   80 1    
    19    9   10 ar   
    20    9   14 ar   
    21   10   11 ar   
    22   10   81 1    
    23   11   12 ar   
    24   11   71 1    
    25   12   13 ar   
    26   12   82 1    
    27   13   14 ar   
    28   13   15 1    
    29   14   83 1    
    30   15   16 1    
    31   15   84 1    
    32   15   85 1    
    33   16   17 1    
    34   17   18 1    
    35   17   86 1    
    36   17   87 1    
    37   18   19 1    
    38   18   37 1    
    39   18   88 1    
    40   19   20 am   BACKBONE|DICT|INTERRES
    41   19   89 1    
    42   20   21 2    
    43   20   22 1    
    44   22   23 1    
    45   22   24 1    
    46   22   90 1    
    47   23   91 1    
    48   23   92 1    
    49   23   93 1    
    50   24   25 am   BACKBONE|DICT|INTERRES
    51   24   94 1    
    52   25   26 2    
    53   25   27 1    
    54   27   28 1    
    55   27   29 1    
    56   27   95 1    
    57   28   96 1    
    58   28   97 1    
    59   28   98 1    
    60   29   30 am   BACKBONE|DICT|INTERRES
    61   29   99 1    
    62   30   31 2    
    63   30   32 1    
    64   32   33 1    
    65   32   34 1    
    66   32  100 1    
    67   33  101 1    
    68   33  102 1    
    69   33  103 1    
    70   34   35 am   BACKBONE|DICT|INTERRES
    71   34  104 1    
    72   35   36 2    
    73   37   38 2    
    74   37   39 am   BACKBONE|DICT|INTERRES
    75   39   40 1    
    76   39  105 1    
    77   40   41 1    
    78   40   42 1    
    79   40  106 1    
    80   41  107 1    
    81   41  108 1    
    82   41  109 1    
    83   42   43 2    
    84   42   44 am   BACKBONE|DICT|INTERRES
    85   44   45 1    
    86   44  110 1    
    87   45   46 1    
    88   45   47 1    
    89   45  111 1    
    90   46  112 1    
    91   46  113 1    
    92   46  114 1    
    93   47   48 2    
    94   47   49 am   BACKBONE|DICT|INTERRES
    95   49   50 1    
    96   49  115 1    
    97   50   51 1    
    98   50   52 1    
    99   50  116 1    
   100   51  117 1    
   101   51  118 1    
   102   51  119 1    
   103   52   53 2    
   104   52   54 am   BACKBONE|DICT|INTERRES
   105   54   55 1    
   106   54  120 1    
   107   55   56 1    
   108   55   57 1    
   109   55  121 1    
   110   56  122 1    
   111   56  123 1    
   112   56  124 1    
   113   57   58 2    
   114   57   59 am   BACKBONE|DICT|INTERRES
   115   59   60 1    
   116   59  125 1    
   117   60   61 1    
   118   60   62 1    
   119   60  126 1    
   120   61  127 1    
   121   61  128 1    
   122   61  129 1    
   123   62   63 2    
   124   62   64 am   BACKBONE|DICT|INTERRES
   125   64   65 1    
   126   64  130 1    
   127   65   66 1    
   128   65   69 1    
   129   65  131 1    
   130   66   67 am   BACKBONE|DICT|INTERRES
   131   66   68 2    
   132   67  132 1    
   133   67  133 1    
   134   69   70 1    
   135   69  134 1    
   136   69  135 1    
   137   70   71 1    
   138   71  136 1    
   139   71  137 1    
@<TRIPOS>SUBSTRUCTURE
     1 UNK         1 GROUP             0       ****    0 ROOT    
