@<TRIPOS>MOLECULE
3R137
137   139    1
SMALL
USER_CHARGES


@<TRIPOS>ATOM
      1 CA         27.8659   -2.7753   -3.9861 C.3       0 UNK        -0.2020 
      2 C          27.7165   -3.8316   -2.9062 C.2       0 UNK         0.4855 
      3 O          27.1963   -4.9154   -3.1751 O.2       0 UNK        -0.5197 
      4 N          28.1589   -3.5314   -1.6794 N.am      1 UNK        -0.4892 
      5 CA         27.9874   -4.3927   -0.5061 C.3       1 UNK         0.0835 
      6 C6         28.8412   -3.9253    0.6966 C.3       12 UNK        -0.0855 
      7 S7         30.6280   -4.0740    0.3562 S.3       12 UNK        -0.2931 
      8 C8         31.2039   -2.3572    0.5414 C.3       12 UNK         0.0378 
      9 C9         30.7790   -1.4717   -0.6218 C.ar      12 UNK        -0.0802 
     10 C10        31.4477   -1.5552   -1.8466 C.ar      12 UNK        -0.0944 
     11 C11        31.0989   -0.7118   -2.9054 C.ar      12 UNK        -0.0787 
     12 C12        30.0776    0.2269   -2.7309 C.ar      12 UNK        -0.0862 
     13 C13        29.3957    0.3150   -1.5129 C.ar      12 UNK        -0.0733 
     14 C14        29.7482   -0.5405   -0.4639 C.ar      12 UNK        -0.0832 
     15 C15        28.3041    1.3561   -1.3090 C.3       12 UNK         0.0240 
     16 S16        26.7572    0.9034   -2.1554 S.3       12 UNK        -0.2522 
     17 C17        26.9086    1.8027   -3.7386 C.3       12 UNK        -0.0967 
     18 CA         26.6254    0.9001   -4.9661 C.3       5 UNK         0.0660 
     19 N          25.2664    0.3564   -4.9256 N.am      5 UNK        -0.4015 
     20 C          24.8369   -0.7194   -5.5930 C.2       4 UNK         0.4946 
     21 O          25.5352   -1.3731   -6.3724 O.2       4 UNK        -0.5353 
     22 CA         23.3764   -1.1363   -5.3509 C.3       4 UNK         0.0277 
     23 CB         22.5118   -0.8100   -6.5793 C.3       4 UNK        -0.1981 
     24 N          23.2769   -2.5660   -5.0498 N.am      4 UNK        -0.4209 
     25 C          23.7912   -3.1475   -3.9576 C.2       3 UNK         0.4942 
     26 O          24.3222   -2.5180   -3.0393 O.2       3 UNK        -0.5208 
     27 CA         23.6978   -4.6827   -3.8987 C.3       3 UNK         0.0250 
     28 CB         24.4178   -5.3328   -5.0956 C.3       3 UNK        -0.1990 
     29 N          24.2922   -5.1935   -2.6618 N.am      3 UNK        -0.4232 
     30 C          23.6288   -5.3781   -1.5113 C.2       2 UNK         0.4993 
     31 O          22.4149   -5.2043   -1.3900 O.2       2 UNK        -0.5286 
     32 CA         24.4334   -5.8576   -0.2873 C.3       2 UNK         0.0209 
     33 CB         24.1842   -7.3542   -0.0347 C.3       2 UNK        -0.1931 
     34 N          25.8748   -5.6334   -0.4256 N.am      2 UNK        -0.4546 
     35 C          26.4913   -4.4787   -0.1409 C.2       1 UNK         0.5154 
     36 O          25.9279   -3.5031    0.3602 O.2       1 UNK        -0.5181 
     37 C          26.8621    1.6484   -6.2934 C.2       5 UNK         0.5014 
     38 O          26.8167    2.8808   -6.3229 O.2       5 UNK        -0.5248 
     39 N          27.0908    0.8945   -7.3760 N.am      6 UNK        -0.4434 
     40 CA         27.3509    1.3902   -8.7304 C.3       6 UNK         0.0363 
     41 CB         27.1058    0.2494   -9.7347 C.3       6 UNK        -0.1936 
     42 C          28.7557    2.0101   -8.8728 C.2       6 UNK         0.5081 
     43 O          29.5768    1.5174   -9.6467 O.2       6 UNK        -0.5248 
     44 N          29.0036    3.0979   -8.1313 N.am      7 UNK        -0.4718 
     45 CA         30.2679    3.8426   -8.0725 C.3       7 UNK         0.0273 
     46 CB         30.1363    4.9790   -7.0473 C.3       7 UNK        -0.1935 
     47 C          30.7500    4.3901   -9.4280 C.2       7 UNK         0.5018 
     48 O          31.9574    4.5200   -9.6324 O.2       7 UNK        -0.5186 
     49 N          29.8089    4.6433  -10.3491 N.am      8 UNK        -0.4240 
     50 CA         30.0653    5.0058  -11.7470 C.3       8 UNK         0.0235 
     51 CB         28.7335    5.3685  -12.4236 C.3       8 UNK        -0.2000 
     52 C          30.7962    3.9115  -12.5517 C.2       8 UNK         0.4941 
     53 O          31.4415    4.2354  -13.5491 O.2       8 UNK        -0.5273 
     54 N          30.7050    2.6538  -12.0995 N.am      9 UNK        -0.4262 
     55 CA         31.4281    1.4990  -12.6279 C.3       9 UNK         0.0264 
     56 CB         30.4069    0.4828  -13.1734 C.3       9 UNK        -0.1955 
     57 C          32.3191    0.8986  -11.5255 C.2       9 UNK         0.5031 
     58 O          32.4416   -0.3267  -11.4421 O.2       9 UNK        -0.5390 
     59 N          32.8843    1.7637  -10.6655 N.am      10 UNK        -0.4204 
     60 CA         33.6899    1.4929   -9.4639 C.3       10 UNK         0.0237 
     61 CB         34.9918    0.7406   -9.8038 C.3       10 UNK        -0.1985 
     62 C          32.9063    0.7905   -8.3404 C.2       10 UNK         0.4970 
     63 O          32.8743    1.2911   -7.2162 O.2       10 UNK        -0.4914 
     64 N          32.2813   -0.3375   -8.6757 N.am      11 UNK        -0.4285 
     65 CA         31.3589   -1.1112   -7.8431 C.3       11 UNK         0.1007 
     66 C          30.3390   -1.9393   -8.6815 C.2       11 UNK         0.5703 
     67 N          30.3841   -1.9318  -10.0114 N.am      11 UNK        -0.7361 
     68 O          29.4666   -2.5941   -8.1178 O.2       11 UNK        -0.4986 
     69 C69        32.1155   -1.9578   -6.7793 C.3       12 UNK        -0.0947 
     70 S70        31.1634   -2.1659   -5.2414 S.3       12 UNK        -0.2240 
     71 C71        31.8325   -0.8114   -4.2333 C.3       12 UNK         0.0194 
     72 H72        28.4765   -1.9378   -3.6533 H         1 UNK         0.0906 
     73 H73        28.3244   -3.2031   -4.8772 H         1 UNK         0.0906 
     74 H74        26.8849   -2.3925   -4.2589 H         1 UNK         0.0906 
     75 H75        28.5952   -2.6360   -1.5067 H         1 UNK         0.3140 
     76 H76        28.3285   -5.3943   -0.7789 H         1 UNK         0.1085 
     77 H77        28.6266   -4.5370    1.5751 H         1 UNK         0.0836 
     78 H78        28.5902   -2.9006    0.9760 H         1 UNK         0.0836 
     79 H79        32.2931   -2.3612    0.6055 H         1 UNK         0.0731 
     80 H80        30.8495   -1.9534    1.4912 H         1 UNK         0.0731 
     81 H81        32.2428   -2.2773   -1.9752 H         1 UNK         0.1312 
     82 H82        29.8145    0.8873   -3.5448 H         1 UNK         0.1406 
     83 H83        29.2337   -0.4658    0.4849 H         1 UNK         0.1631 
     84 H84        28.6530    2.3354   -1.6393 H         1 UNK         0.0717 
     85 H85        28.0858    1.4666   -0.2457 H         1 UNK         0.0717 
     86 H86        26.2166    2.6469   -3.7120 H         1 UNK         0.0934 
     87 H87        27.9045    2.2409   -3.8184 H         1 UNK         0.0934 
     88 H88        27.3320    0.0679   -4.9329 H         1 UNK         0.0739 
     89 H89        24.6257    0.8339   -4.3088 H         1 UNK         0.3093 
     90 H90        22.9821   -0.5854   -4.4943 H         1 UNK         0.0818 
     91 H91        22.5502    0.2551   -6.8114 H         1 UNK         0.0819 
     92 H92        22.8508   -1.3477   -7.4658 H         1 UNK         0.0819 
     93 H93        21.4658   -1.0660   -6.4096 H         1 UNK         0.0819 
     94 H94        22.8823   -3.1508   -5.7718 H         1 UNK         0.3041 
     95 H95        22.6421   -4.9598   -3.9382 H         1 UNK         0.0784 
     96 H96        23.9162   -5.1028   -6.0359 H         1 UNK         0.0793 
     97 H97        25.4480   -4.9860   -5.1857 H         1 UNK         0.0793 
     98 H98        24.4384   -6.4188   -5.0040 H         1 UNK         0.0793 
     99 H99        25.3050   -5.2712   -2.6642 H         1 UNK         0.3024 
    100 H100       24.0659   -5.3004    0.5780 H         1 UNK         0.1171 
    101 H101       24.5248   -7.9679   -0.8696 H         1 UNK         0.0786 
    102 H102       24.6962   -7.6955    0.8652 H         1 UNK         0.0786 
    103 H103       23.1208   -7.5549    0.1043 H         1 UNK         0.0786 
    104 H104       26.4069   -6.3741   -0.8613 H         1 UNK         0.2977 
    105 H105       27.0245   -0.1119   -7.2653 H         1 UNK         0.3127 
    106 H106       26.6300    2.1804   -8.9500 H         1 UNK         0.0770 
    107 H107       27.2720    0.5855  -10.7591 H         1 UNK         0.0814 
    108 H108       26.0806   -0.1166   -9.6766 H         1 UNK         0.0814 
    109 H109       27.7721   -0.5946   -9.5571 H         1 UNK         0.0814 
    110 H110       28.2675    3.3914   -7.4938 H         1 UNK         0.2983 
    111 H111       31.0328    3.1510   -7.7174 H         1 UNK         0.0947 
    112 H112       31.0708    5.5350   -6.9581 H         1 UNK         0.0806 
    113 H113       29.8950    4.5933   -6.0566 H         1 UNK         0.0806 
    114 H114       29.3586    5.6895   -7.3297 H         1 UNK         0.0806 
    115 H115       28.8444    4.5084  -10.0827 H         1 UNK         0.3000 
    116 H116       30.7057    5.8905  -11.7477 H         1 UNK         0.0850 
    117 H117       28.0428    4.5243  -12.4346 H         1 UNK         0.0810 
    118 H118       28.8923    5.6725  -13.4593 H         1 UNK         0.0810 
    119 H119       28.2427    6.1995  -11.9166 H         1 UNK         0.0810 
    120 H120       30.1770    2.4691  -11.2493 H         1 UNK         0.3040 
    121 H121       32.0912    1.7951  -13.4431 H         1 UNK         0.0766 
    122 H122       29.7840    0.9266  -13.9498 H         1 UNK         0.0812 
    123 H123       29.7483    0.1149  -12.3851 H         1 UNK         0.0812 
    124 H124       30.9066   -0.3805  -13.6148 H         1 UNK         0.0812 
    125 H125       32.6560    2.7434  -10.7896 H         1 UNK         0.3205 
    126 H126       33.9733    2.4734   -9.0773 H         1 UNK         0.0754 
    127 H127       35.6140    0.6228   -8.9158 H         1 UNK         0.0769 
    128 H128       35.5808    1.2851  -10.5420 H         1 UNK         0.0769 
    129 H129       34.8015   -0.2575  -10.1990 H         1 UNK         0.0769 
    130 H130       32.3602   -0.6286   -9.6460 H         1 UNK         0.2981 
    131 H131       30.7455   -0.3719   -7.3239 H         1 UNK         0.0541 
    132 H132       31.0601   -1.3864  -10.5318 H         1 UNK         0.3459 
    133 H133       29.7037   -2.4791  -10.5129 H         1 UNK         0.3459 
    134 H134       33.0693   -1.4968   -6.5185 H         1 UNK         0.0612 
    135 H135       32.3705   -2.9429   -7.1737 H         1 UNK         0.0612 
    136 H136       32.8966   -0.9781   -4.0594 H         1 UNK         0.0624 
    137 H137       31.7501    0.1255   -4.7870 H         1 UNK         0.0624 
@<TRIPOS>BOND
     1    1    2 1    
     2    1   72 1    
     3    1   73 1    
     4    1   74 1    
     5    2    3 2    
     6    2    4 am   BACKBONE|DICT|INTERRES
     7    4    5 1    
     8    4   75 1    
     9    5    6 1    
    10    5   35 1    
    11    5   76 1    
    12    6    7 1    
    13    6   77 1    
    14    6   78 1    
    15    7    8 1    
    16    8    9 1    
    17    8   79 1    
    18    8   80 1    
    19    9   10 ar   
    20    9   14 ar   
    21   10   11 ar   
    22   10   81 1    
    23   11   12 ar   
    24   11   71 1    
    25   12   13 ar   
    26   12   82 1    
    27   13   14 ar   
    28   13   15 1    
    29   14   83 1    
    30   15   16 1    
    31   15   84 1    
    32   15   85 1    
    33   16   17 1    
    34   17   18 1    
    35   17   86 1    
    36   17   87 1    
    37   18   19 1    
    38   18   37 1    
    39   18   88 1    
    40   19   20 am   BACKBONE|DICT|INTERRES
    41   19   89 1    
    42   20   21 2    
    43   20   22 1    
    44   22   23 1    
    45   22   24 1    
    46   22   90 1    
    47   23   91 1    
    48   23   92 1    
    49   23   93 1    
    50   24   25 am   BACKBONE|DICT|INTERRES
    51   24   94 1    
    52   25   26 2    
    53   25   27 1    
    54   27   28 1    
    55   27   29 1    
    56   27   95 1    
    57   28   96 1    
    58   28   97 1    
    59   28   98 1    
    60   29   30 am   BACKBONE|DICT|INTERRES
    61   29   99 1    
    62   30   31 2    
    63   30   32 1    
    64   32   33 1    
    65   32   34 1    
    66   32  100 1    
    67   33  101 1    
    68   33  102 1    
    69   33  103 1    
    70   34   35 am   BACKBONE|DICT|INTERRES
    71   34  104 1    
    72   35   36 2    
    73   37   38 2    
    74   37   39 am   BACKBONE|DICT|INTERRES
    75   39   40 1    
    76   39  105 1    
    77   40   41 1    
    78   40   42 1    
    79   40  106 1    
    80   41  107 1    
    81   41  108 1    
    82   41  109 1    
    83   42   43 2    
    84   42   44 am   BACKBONE|DICT|INTERRES
    85   44   45 1    
    86   44  110 1    
    87   45   46 1    
    88   45   47 1    
    89   45  111 1    
    90   46  112 1    
    91   46  113 1    
    92   46  114 1    
    93   47   48 2    
    94   47   49 am   BACKBONE|DICT|INTERRES
    95   49   50 1    
    96   49  115 1    
    97   50   51 1    
    98   50   52 1    
    99   50  116 1    
   100   51  117 1    
   101   51  118 1    
   102   51  119 1    
   103   52   53 2    
   104   52   54 am   BACKBONE|DICT|INTERRES
   105   54   55 1    
   106   54  120 1    
   107   55   56 1    
   108   55   57 1    
   109   55  121 1    
   110   56  122 1    
   111   56  123 1    
   112   56  124 1    
   113   57   58 2    
   114   57   59 am   BACKBONE|DICT|INTERRES
   115   59   60 1    
   116   59  125 1    
   117   60   61 1    
   118   60   62 1    
   119   60  126 1    
   120   61  127 1    
   121   61  128 1    
   122   61  129 1    
   123   62   63 2    
   124   62   64 am   BACKBONE|DICT|INTERRES
   125   64   65 1    
   126   64  130 1    
   127   65   66 1    
   128   65   69 1    
   129   65  131 1    
   130   66   67 am   BACKBONE|DICT|INTERRES
   131   66   68 2    
   132   67  132 1    
   133   67  133 1    
   134   69   70 1    
   135   69  134 1    
   136   69  135 1    
   137   70   71 1    
   138   71  136 1    
   139   71  137 1    
@<TRIPOS>SUBSTRUCTURE
     1 UNK         1 GROUP             0       ****    0 ROOT    
