@<TRIPOS>MOLECULE
3R137
137   139    1
SMALL
USER_CHARGES


@<TRIPOS>ATOM
      1 CA         23.4369    1.2706   -5.4060 C.3       0 UNK        -0.2020 
      2 C          24.1691    0.4611   -4.3479 C.2       0 UNK         0.4855 
      3 O          23.6421   -0.5628   -3.9122 O.2       0 UNK        -0.5197 
      4 N          25.3621    0.9115   -3.9270 N.am      1 UNK        -0.4892 
      5 CA         26.1919    0.2981   -2.8765 C.3       1 UNK         0.0835 
      6 C6         27.4837    1.1072   -2.5960 C.3       12 UNK        -0.0855 
      7 S7         28.7771    0.7133   -3.8166 S.3       12 UNK        -0.2931 
      8 C8         29.7813   -0.4923   -2.8912 C.3       12 UNK         0.0378 
      9 C9         30.3417   -1.5613   -3.8148 C.ar      12 UNK        -0.0802 
     10 C10        31.6942   -1.5726   -4.1691 C.ar      12 UNK        -0.0944 
     11 C11        32.1969   -2.5650   -5.0180 C.ar      12 UNK        -0.0787 
     12 C12        31.3354   -3.5515   -5.5104 C.ar      12 UNK        -0.0862 
     13 C13        29.9806   -3.5450   -5.1660 C.ar      12 UNK        -0.0733 
     14 C14        29.4943   -2.5553   -4.3084 C.ar      12 UNK        -0.0832 
     15 C15        29.0337   -4.5995   -5.7211 C.3       12 UNK         0.0240 
     16 S16        28.6585   -4.3347   -7.4845 S.3       12 UNK        -0.2522 
     17 C17        27.9291   -2.6603   -7.4982 C.3       12 UNK        -0.0967 
     18 CA         26.4145   -2.6580   -7.8484 C.3       5 UNK         0.0660 
     19 N          25.5890   -3.4834   -6.9569 N.am      5 UNK        -0.4015 
     20 C          25.4030   -3.2858   -5.6462 C.2       4 UNK         0.4946 
     21 O          25.9686   -2.4107   -4.9901 O.2       4 UNK        -0.5353 
     22 CA         24.4618   -4.2571   -4.9284 C.3       4 UNK         0.0277 
     23 CB         25.2700   -5.3492   -4.2005 C.3       4 UNK        -0.1981 
     24 N          23.6508   -3.4954   -3.9817 N.am      4 UNK        -0.4209 
     25 C          22.5378   -3.9257   -3.3747 C.2       3 UNK         0.4942 
     26 O          22.0633   -5.0524   -3.5344 O.2       3 UNK        -0.5208 
     27 CA         21.8381   -2.9167   -2.4421 C.3       3 UNK         0.0250 
     28 CB         20.6909   -3.5344   -1.6122 C.3       3 UNK        -0.1990 
     29 N          22.7928   -2.1919   -1.5937 N.am      3 UNK        -0.4232 
     30 C          23.5658   -2.6889   -0.6157 C.2       2 UNK         0.4993 
     31 O          23.5219   -3.8556   -0.2223 O.2       2 UNK        -0.5286 
     32 CA         24.5965   -1.7141   -0.0193 C.3       2 UNK         0.0209 
     33 CB         25.5042   -2.3714    1.0383 C.3       2 UNK        -0.1931 
     34 N          25.4279   -1.1988   -1.1059 N.am      2 UNK        -0.4546 
     35 C          25.4003    0.0538   -1.5753 C.2       1 UNK         0.5154 
     36 O          24.7735    0.9775   -1.0507 O.2       1 UNK        -0.5181 
     37 C          25.8031   -1.2446   -8.0022 C.2       5 UNK         0.5014 
     38 O          24.6113   -1.1463   -8.3045 O.2       5 UNK        -0.5248 
     39 N          26.6089   -0.1868   -7.8358 N.am      6 UNK        -0.4434 
     40 CA         26.2061    1.2070   -8.0082 C.3       6 UNK         0.0363 
     41 CB         26.3277    1.6288   -9.4858 C.3       6 UNK        -0.1936 
     42 C          27.0285    2.1019   -7.0769 C.2       6 UNK         0.5081 
     43 O          26.4784    2.6561   -6.1247 O.2       6 UNK        -0.5248 
     44 N          28.3311    2.2135   -7.3566 N.am      7 UNK        -0.4718 
     45 CA         29.2827    3.0073   -6.5862 C.3       7 UNK         0.0273 
     46 CB         29.4134    4.4052   -7.2156 C.3       7 UNK        -0.1935 
     47 C          30.6338    2.2912   -6.5829 C.2       7 UNK         0.5018 
     48 O          30.9718    1.6264   -7.5674 O.2       7 UNK        -0.5186 
     49 N          31.4117    2.4955   -5.5120 N.am      8 UNK        -0.4240 
     50 CA         32.7482    1.9205   -5.3144 C.3       8 UNK         0.0235 
     51 CB         33.1839    2.1492   -3.8580 C.3       8 UNK        -0.2000 
     52 C          33.8182    2.4382   -6.2954 C.2       8 UNK         0.4941 
     53 O          34.8876    1.8379   -6.3955 O.2       8 UNK        -0.5273 
     54 N          33.5142    3.5255   -7.0164 N.am      9 UNK        -0.4262 
     55 CA         34.2992    4.0157   -8.1493 C.3       9 UNK         0.0264 
     56 CB         33.8911    5.4681   -8.4474 C.3       9 UNK        -0.1955 
     57 C          34.1413    3.1444   -9.4120 C.2       9 UNK         0.5031 
     58 O          35.0037    3.2166  -10.2890 O.2       9 UNK        -0.5390 
     59 N          33.0530    2.3645   -9.4978 N.am      10 UNK        -0.4204 
     60 CA         32.7191    1.5122  -10.6382 C.3       10 UNK         0.0237 
     61 CB         31.3112    1.8717  -11.1466 C.3       10 UNK        -0.1985 
     62 C          32.7989    0.0237  -10.2735 C.2       10 UNK         0.4970 
     63 O          33.4196   -0.7359  -11.0179 O.2       10 UNK        -0.4914 
     64 N          32.1583   -0.3678   -9.1608 N.am      11 UNK        -0.4285 
     65 CA         32.0052   -1.7616   -8.6980 C.3       11 UNK         0.1007 
     66 C          31.2388   -2.6817   -9.7002 C.2       11 UNK         0.5703 
     67 N          30.3356   -2.1448  -10.5138 N.am      11 UNK        -0.7361 
     68 O          31.4484   -3.8918   -9.7413 O.2       11 UNK        -0.4986 
     69 C69        33.3385   -2.3887   -8.1956 C.3       12 UNK        -0.0947 
     70 S70        34.0526   -1.4812   -6.7854 S.3       12 UNK        -0.2240 
     71 C71        33.6746   -2.5815   -5.3844 C.3       12 UNK         0.0194 
     72 H72        23.9446    2.2068   -5.6333 H         1 UNK         0.0906 
     73 H73        23.3472    0.6894   -6.3232 H         1 UNK         0.0906 
     74 H74        22.4324    1.5115   -5.0597 H         1 UNK         0.0906 
     75 H75        25.7655    1.7216   -4.3861 H         1 UNK         0.3140 
     76 H76        26.4841   -0.6810   -3.2566 H         1 UNK         0.1085 
     77 H77        27.8817    0.9111   -1.5980 H         1 UNK         0.0836 
     78 H78        27.2812    2.1795   -2.6228 H         1 UNK         0.0836 
     79 H79        29.1772   -0.9790   -2.1240 H         1 UNK         0.0731 
     80 H80        30.5813    0.0329   -2.3674 H         1 UNK         0.0731 
     81 H81        32.3583   -0.8126   -3.7821 H         1 UNK         0.1312 
     82 H82        31.7133   -4.3200   -6.1708 H         1 UNK         0.1406 
     83 H83        28.4459   -2.5422   -4.0411 H         1 UNK         0.1631 
     84 H84        28.1011   -4.6163   -5.1565 H         1 UNK         0.0717 
     85 H85        29.4811   -5.5869   -5.6000 H         1 UNK         0.0717 
     86 H86        28.1007   -2.1626   -6.5454 H         1 UNK         0.0934 
     87 H87        28.4897   -2.0916   -8.2413 H         1 UNK         0.0934 
     88 H88        26.3187   -3.1134   -8.8354 H         1 UNK         0.0739 
     89 H89        25.0769   -4.2252   -7.4119 H         1 UNK         0.3093 
     90 H90        23.7978   -4.7211   -5.6607 H         1 UNK         0.0818 
     91 H91        24.6188   -6.0721   -3.7093 H         1 UNK         0.0819 
     92 H92        25.8950   -5.9047   -4.9008 H         1 UNK         0.0819 
     93 H93        25.9267   -4.9221   -3.4415 H         1 UNK         0.0819 
     94 H94        23.9310   -2.5227   -3.8645 H         1 UNK         0.3041 
     95 H95        21.3935   -2.1666   -3.0980 H         1 UNK         0.0784 
     96 H96        19.9162   -3.9408   -2.2635 H         1 UNK         0.0793 
     97 H97        21.0385   -4.3502   -0.9780 H         1 UNK         0.0793 
     98 H98        20.2176   -2.7893   -0.9729 H         1 UNK         0.0793 
     99 H99        22.9796   -1.2435   -1.8986 H         1 UNK         0.3024 
    100 H100       24.0380   -0.9087    0.4639 H         1 UNK         0.1171 
    101 H101       26.0731   -3.2046    0.6236 H         1 UNK         0.0786 
    102 H102       24.9162   -2.7585    1.8715 H         1 UNK         0.0786 
    103 H103       26.2141   -1.6538    1.4499 H         1 UNK         0.0786 
    104 H104       25.9462   -1.8956   -1.6234 H         1 UNK         0.2977 
    105 H105       27.5519   -0.3353   -7.5061 H         1 UNK         0.3127 
    106 H106       25.1618    1.3204   -7.7147 H         1 UNK         0.0770 
    107 H107       26.1051    2.6896   -9.6086 H         1 UNK         0.0814 
    108 H108       25.6235    1.0783  -10.1097 H         1 UNK         0.0814 
    109 H109       27.3277    1.4544   -9.8838 H         1 UNK         0.0814 
    110 H110       28.7369    1.6977   -8.1256 H         1 UNK         0.2983 
    111 H111       28.9375    3.1064   -5.5547 H         1 UNK         0.0947 
    112 H112       30.1121    5.0272   -6.6548 H         1 UNK         0.0806 
    113 H113       28.4552    4.9251   -7.2229 H         1 UNK         0.0806 
    114 H114       29.7718    4.3528   -8.2447 H         1 UNK         0.0806 
    115 H115       31.0535    3.0613   -4.7556 H         1 UNK         0.3000 
    116 H116       32.6657    0.8460   -5.4844 H         1 UNK         0.0850 
    117 H117       32.4695    1.7180   -3.1566 H         1 UNK         0.0810 
    118 H118       33.2830    3.2108   -3.6286 H         1 UNK         0.0810 
    119 H119       34.1498    1.6813   -3.6621 H         1 UNK         0.0810 
    120 H120       32.6329    3.9834   -6.8386 H         1 UNK         0.3040 
    121 H121       35.3554    4.0061   -7.8712 H         1 UNK         0.0766 
    122 H122       34.4802    5.8772   -9.2696 H         1 UNK         0.0812 
    123 H123       34.0546    6.1123   -7.5833 H         1 UNK         0.0812 
    124 H124       32.8405    5.5440   -8.7310 H         1 UNK         0.0812 
    125 H125       32.4154    2.3226   -8.7095 H         1 UNK         0.3205 
    126 H126       33.4194    1.6829  -11.4587 H         1 UNK         0.0754 
    127 H127       31.0255    1.2389  -11.9880 H         1 UNK         0.0769 
    128 H128       31.2714    2.9049  -11.4921 H         1 UNK         0.0769 
    129 H129       30.5524    1.7521  -10.3725 H         1 UNK         0.0769 
    130 H130       31.6796    0.3299   -8.5956 H         1 UNK         0.2981 
    131 H131       31.3395   -1.7032   -7.8363 H         1 UNK         0.0541 
    132 H132       30.1610   -1.1539  -10.5076 H         1 UNK         0.3459 
    133 H133       29.8438   -2.7418  -11.1593 H         1 UNK         0.3459 
    134 H134       33.1939   -3.4272   -7.8956 H         1 UNK         0.0612 
    135 H135       34.0771   -2.4135   -8.9976 H         1 UNK         0.0612 
    136 H136       34.0046   -3.5957   -5.6145 H         1 UNK         0.0624 
    137 H137       34.2645   -2.2607   -4.5246 H         1 UNK         0.0624 
@<TRIPOS>BOND
     1    1    2 1    
     2    1   72 1    
     3    1   73 1    
     4    1   74 1    
     5    2    3 2    
     6    2    4 am   BACKBONE|DICT|INTERRES
     7    4    5 1    
     8    4   75 1    
     9    5    6 1    
    10    5   35 1    
    11    5   76 1    
    12    6    7 1    
    13    6   77 1    
    14    6   78 1    
    15    7    8 1    
    16    8    9 1    
    17    8   79 1    
    18    8   80 1    
    19    9   10 ar   
    20    9   14 ar   
    21   10   11 ar   
    22   10   81 1    
    23   11   12 ar   
    24   11   71 1    
    25   12   13 ar   
    26   12   82 1    
    27   13   14 ar   
    28   13   15 1    
    29   14   83 1    
    30   15   16 1    
    31   15   84 1    
    32   15   85 1    
    33   16   17 1    
    34   17   18 1    
    35   17   86 1    
    36   17   87 1    
    37   18   19 1    
    38   18   37 1    
    39   18   88 1    
    40   19   20 am   BACKBONE|DICT|INTERRES
    41   19   89 1    
    42   20   21 2    
    43   20   22 1    
    44   22   23 1    
    45   22   24 1    
    46   22   90 1    
    47   23   91 1    
    48   23   92 1    
    49   23   93 1    
    50   24   25 am   BACKBONE|DICT|INTERRES
    51   24   94 1    
    52   25   26 2    
    53   25   27 1    
    54   27   28 1    
    55   27   29 1    
    56   27   95 1    
    57   28   96 1    
    58   28   97 1    
    59   28   98 1    
    60   29   30 am   BACKBONE|DICT|INTERRES
    61   29   99 1    
    62   30   31 2    
    63   30   32 1    
    64   32   33 1    
    65   32   34 1    
    66   32  100 1    
    67   33  101 1    
    68   33  102 1    
    69   33  103 1    
    70   34   35 am   BACKBONE|DICT|INTERRES
    71   34  104 1    
    72   35   36 2    
    73   37   38 2    
    74   37   39 am   BACKBONE|DICT|INTERRES
    75   39   40 1    
    76   39  105 1    
    77   40   41 1    
    78   40   42 1    
    79   40  106 1    
    80   41  107 1    
    81   41  108 1    
    82   41  109 1    
    83   42   43 2    
    84   42   44 am   BACKBONE|DICT|INTERRES
    85   44   45 1    
    86   44  110 1    
    87   45   46 1    
    88   45   47 1    
    89   45  111 1    
    90   46  112 1    
    91   46  113 1    
    92   46  114 1    
    93   47   48 2    
    94   47   49 am   BACKBONE|DICT|INTERRES
    95   49   50 1    
    96   49  115 1    
    97   50   51 1    
    98   50   52 1    
    99   50  116 1    
   100   51  117 1    
   101   51  118 1    
   102   51  119 1    
   103   52   53 2    
   104   52   54 am   BACKBONE|DICT|INTERRES
   105   54   55 1    
   106   54  120 1    
   107   55   56 1    
   108   55   57 1    
   109   55  121 1    
   110   56  122 1    
   111   56  123 1    
   112   56  124 1    
   113   57   58 2    
   114   57   59 am   BACKBONE|DICT|INTERRES
   115   59   60 1    
   116   59  125 1    
   117   60   61 1    
   118   60   62 1    
   119   60  126 1    
   120   61  127 1    
   121   61  128 1    
   122   61  129 1    
   123   62   63 2    
   124   62   64 am   BACKBONE|DICT|INTERRES
   125   64   65 1    
   126   64  130 1    
   127   65   66 1    
   128   65   69 1    
   129   65  131 1    
   130   66   67 am   BACKBONE|DICT|INTERRES
   131   66   68 2    
   132   67  132 1    
   133   67  133 1    
   134   69   70 1    
   135   69  134 1    
   136   69  135 1    
   137   70   71 1    
   138   71  136 1    
   139   71  137 1    
@<TRIPOS>SUBSTRUCTURE
     1 UNK         1 GROUP             0       ****    0 ROOT    
