@<TRIPOS>MOLECULE
3R137
137   139    1
SMALL
USER_CHARGES


@<TRIPOS>ATOM
      1 CA         27.7339   -6.2676    1.0159 C.3       0 UNK        -0.2020 
      2 C          27.0219   -4.9634    1.3419 C.2       0 UNK         0.4855 
      3 O          26.0657   -4.9636    2.1173 O.2       0 UNK        -0.5197 
      4 N          27.4798   -3.8502    0.7545 N.am      1 UNK        -0.4892 
      5 CA         26.9029   -2.5105    0.9312 C.3       1 UNK         0.0835 
      6 C6         27.9108   -1.3989    0.5260 C.3       12 UNK        -0.0855 
      7 S7         28.3305   -1.3589   -1.2573 S.3       12 UNK        -0.2931 
      8 C8         29.9443   -2.1921   -1.2711 C.3       12 UNK         0.0378 
      9 C9         30.3873   -2.5278   -2.6875 C.ar      12 UNK        -0.0802 
     10 C10        31.4635   -1.8525   -3.2690 C.ar      12 UNK        -0.0944 
     11 C11        31.9253   -2.2084   -4.5399 C.ar      12 UNK        -0.0787 
     12 C12        31.2878   -3.2427   -5.2372 C.ar      12 UNK        -0.0862 
     13 C13        30.1965   -3.9145   -4.6741 C.ar      12 UNK        -0.0733 
     14 C14        29.7522   -3.5505   -3.3988 C.ar      12 UNK        -0.0832 
     15 C15        29.5391   -5.0798   -5.4069 C.3       12 UNK         0.0240 
     16 S16        28.6070   -4.5778   -6.8906 S.3       12 UNK        -0.2522 
     17 C17        27.2291   -3.6063   -6.1860 C.3       12 UNK        -0.0967 
     18 CA         26.8717   -2.3667   -7.0455 C.3       5 UNK         0.0660 
     19 N          25.6315   -1.7256   -6.5990 N.am      5 UNK        -0.4015 
     20 C          24.9659   -0.7876   -7.2932 C.2       4 UNK         0.4946 
     21 O          25.2938   -0.4066   -8.4153 O.2       4 UNK        -0.5353 
     22 CA         23.7551   -0.1191   -6.6156 C.3       4 UNK         0.0277 
     23 CB         22.4749   -0.9256   -6.8835 C.3       4 UNK        -0.1981 
     24 N          23.9267    0.0628   -5.1739 N.am      4 UNK        -0.4209 
     25 C          24.9135    0.7691   -4.6047 C.2       3 UNK         0.4942 
     26 O          25.7155    1.4523   -5.2406 O.2       3 UNK        -0.5208 
     27 CA         25.0739    0.6575   -3.0782 C.3       3 UNK         0.0250 
     28 CB         24.4705    1.8893   -2.3854 C.3       3 UNK        -0.1990 
     29 N          24.5252   -0.5599   -2.4634 N.am      3 UNK        -0.4232 
     30 C          24.8153   -1.8235   -2.8075 C.2       2 UNK         0.4993 
     31 O          25.4982   -2.1332   -3.7859 O.2       2 UNK        -0.5286 
     32 CA         24.3032   -2.9218   -1.8626 C.3       2 UNK         0.0209 
     33 CB         24.0317   -4.2430   -2.6051 C.3       2 UNK        -0.1931 
     34 N          25.3216   -3.1480   -0.8415 N.am      2 UNK        -0.4546 
     35 C          25.5542   -2.3345    0.1986 C.2       1 UNK         0.5154 
     36 O          24.7789   -1.4437    0.5518 O.2       1 UNK        -0.5181 
     37 C          28.0206   -1.3437   -7.0925 C.2       5 UNK         0.5014 
     38 O          28.6719   -1.2140   -8.1298 O.2       5 UNK        -0.5248 
     39 N          28.2048   -0.6067   -5.9868 N.am      6 UNK        -0.4434 
     40 CA         29.2153    0.4423   -5.8397 C.3       6 UNK         0.0363 
     41 CB         29.1681    1.0042   -4.4110 C.3       6 UNK        -0.1936 
     42 C          29.0769    1.5646   -6.8821 C.2       6 UNK         0.5081 
     43 O          30.0896    2.0420   -7.3976 O.2       6 UNK        -0.5248 
     44 N          27.8286    1.9395   -7.1917 N.am      7 UNK        -0.4718 
     45 CA         27.4778    2.8786   -8.2536 C.3       7 UNK         0.0273 
     46 CB         26.0056    3.2968   -8.1080 C.3       7 UNK        -0.1935 
     47 C          27.7563    2.3128   -9.6558 C.2       7 UNK         0.5018 
     48 O          28.4544    2.9651  -10.4318 O.2       7 UNK        -0.5186 
     49 N          27.2192    1.1202   -9.9598 N.am      8 UNK        -0.4240 
     50 CA         27.3185    0.4769  -11.2759 C.3       8 UNK         0.0235 
     51 CB         26.4122   -0.7631  -11.3291 C.3       8 UNK        -0.2000 
     52 C          28.7528    0.1052  -11.6793 C.2       8 UNK         0.4941 
     53 O          29.1253    0.3148  -12.8345 O.2       8 UNK        -0.5273 
     54 N          29.5354   -0.4200  -10.7277 N.am      9 UNK        -0.4262 
     55 CA         30.9477   -0.7567  -10.9232 C.3       9 UNK         0.0264 
     56 CB         31.3399   -1.8674   -9.9363 C.3       9 UNK        -0.1955 
     57 C          31.8864    0.4601  -10.8030 C.2       9 UNK         0.5031 
     58 O          33.0702    0.3209  -11.1147 O.2       9 UNK        -0.5390 
     59 N          31.3546    1.6163  -10.3713 N.am      10 UNK        -0.4204 
     60 CA         32.0396    2.8975  -10.1596 C.3       10 UNK         0.0237 
     61 CB         32.4730    3.5135  -11.5069 C.3       10 UNK        -0.1985 
     62 C          33.1914    2.7822   -9.1434 C.2       10 UNK         0.4970 
     63 O          34.3154    3.2041   -9.4250 O.2       10 UNK        -0.4914 
     64 N          32.8798    2.1912   -7.9870 N.am      11 UNK        -0.4285 
     65 CA         33.8193    1.8833   -6.8995 C.3       11 UNK         0.1007 
     66 C          33.3449    2.3771   -5.5036 C.2       11 UNK         0.5703 
     67 N          32.1710    2.9845   -5.3742 N.am      11 UNK        -0.7361 
     68 O          34.0718    2.2375   -4.5229 O.2       11 UNK        -0.4986 
     69 C69        34.2301    0.3855   -6.9141 C.3       12 UNK        -0.0947 
     70 S70        32.8143   -0.7536   -6.7399 S.3       12 UNK        -0.2240 
     71 C71        33.1475   -1.5061   -5.1203 C.3       12 UNK         0.0194 
     72 H72        28.5616   -6.1203    0.3224 H         1 UNK         0.0906 
     73 H73        28.1310   -6.7155    1.9265 H         1 UNK         0.0906 
     74 H74        27.0362   -6.9735    0.5659 H         1 UNK         0.0906 
     75 H75        28.2687   -3.9052    0.1278 H         1 UNK         0.3140 
     76 H76        26.6887   -2.3833    1.9951 H         1 UNK         0.1085 
     77 H77        27.5053   -0.4204    0.7913 H         1 UNK         0.0836 
     78 H78        28.8256   -1.4959    1.1130 H         1 UNK         0.0836 
     79 H79        29.8947   -3.1119   -0.6881 H         1 UNK         0.0731 
     80 H80        30.6776   -1.5538   -0.7753 H         1 UNK         0.0731 
     81 H81        31.9601   -1.0652   -2.7184 H         1 UNK         0.1312 
     82 H82        31.6470   -3.5310   -6.2158 H         1 UNK         0.1406 
     83 H83        28.9215   -4.0753   -2.9470 H         1 UNK         0.1631 
     84 H84        28.8720   -5.6310   -4.7423 H         1 UNK         0.0717 
     85 H85        30.3139   -5.7861   -5.7083 H         1 UNK         0.0717 
     86 H86        26.3642   -4.2672   -6.1117 H         1 UNK         0.0934 
     87 H87        27.4649   -3.3107   -5.1626 H         1 UNK         0.0934 
     88 H88        26.7004   -2.7096   -8.0685 H         1 UNK         0.0739 
     89 H89        25.3490   -1.9265   -5.6420 H         1 UNK         0.3093 
     90 H90        23.6360    0.8714   -7.0596 H         1 UNK         0.0818 
     91 H91        21.5952   -0.4183   -6.4869 H         1 UNK         0.0819 
     92 H92        22.3151   -1.0567   -7.9548 H         1 UNK         0.0819 
     93 H93        22.5210   -1.9197   -6.4369 H         1 UNK         0.0819 
     94 H94        23.3137   -0.4644   -4.5698 H         1 UNK         0.3041 
     95 H95        26.1473    0.6490   -2.8781 H         1 UNK         0.0784 
     96 H96        24.8812    2.8115   -2.7996 H         1 UNK         0.0793 
     97 H97        23.3875    1.9304   -2.5076 H         1 UNK         0.0793 
     98 H98        24.6900    1.8917   -1.3175 H         1 UNK         0.0793 
     99 H99        23.9982   -0.4203   -1.6117 H         1 UNK         0.3024 
    100 H100       23.3735   -2.5904   -1.3940 H         1 UNK         0.1171 
    101 H101       23.6426   -5.0036   -1.9280 H         1 UNK         0.0786 
    102 H102       23.2912   -4.1008   -3.3933 H         1 UNK         0.0786 
    103 H103       24.9326   -4.6425   -3.0731 H         1 UNK         0.0786 
    104 H104       26.0338   -3.8279   -1.0623 H         1 UNK         0.2977 
    105 H105       27.6042   -0.7728   -5.1922 H         1 UNK         0.3127 
    106 H106       30.1867   -0.0277   -5.9871 H         1 UNK         0.0770 
    107 H107       28.2140    1.4841   -4.1933 H         1 UNK         0.0814 
    108 H108       29.9483    1.7490   -4.2581 H         1 UNK         0.0814 
    109 H109       29.3265    0.2190   -3.6725 H         1 UNK         0.0814 
    110 H110       27.0606    1.5464   -6.6539 H         1 UNK         0.2983 
    111 H111       28.0962    3.7703   -8.1282 H         1 UNK         0.0947 
    112 H112       25.7242    4.0129   -8.8812 H         1 UNK         0.0806 
    113 H113       25.8237    3.7714   -7.1435 H         1 UNK         0.0806 
    114 H114       25.3311    2.4440   -8.1899 H         1 UNK         0.0806 
    115 H115       26.6517    0.6374   -9.2662 H         1 UNK         0.3000 
    116 H116       26.9501    1.1927  -12.0140 H         1 UNK         0.0850 
    117 H117       26.4707   -1.2514  -12.3028 H         1 UNK         0.0810 
    118 H118       25.3680   -0.4977  -11.1633 H         1 UNK         0.0810 
    119 H119       26.6944   -1.4996  -10.5753 H         1 UNK         0.0810 
    120 H120       29.1484   -0.5976   -9.8000 H         1 UNK         0.3040 
    121 H121       31.0774   -1.1542  -11.9321 H         1 UNK         0.0766 
    122 H122       31.1654   -1.5634   -8.9057 H         1 UNK         0.0812 
    123 H123       32.3952   -2.1275  -10.0279 H         1 UNK         0.0812 
    124 H124       30.7635   -2.7754  -10.1133 H         1 UNK         0.0812 
    125 H125       30.3680    1.6192  -10.1458 H         1 UNK         0.3205 
    126 H126       31.3022    3.5667   -9.7132 H         1 UNK         0.0754 
    127 H127       32.8909    4.5107  -11.3638 H         1 UNK         0.0769 
    128 H128       31.6259    3.6116  -12.1859 H         1 UNK         0.0769 
    129 H129       33.2332    2.9099  -12.0039 H         1 UNK         0.0769 
    130 H130       31.9141    1.9146   -7.8255 H         1 UNK         0.2981 
    131 H131       34.7331    2.4551   -7.0689 H         1 UNK         0.0541 
    132 H132       31.5430    3.0666   -6.1613 H         1 UNK         0.3459 
    133 H133       31.8938    3.3231   -4.4674 H         1 UNK         0.3459 
    134 H134       34.9758    0.1801   -6.1443 H         1 UNK         0.0612 
    135 H135       34.7191    0.1557   -7.8619 H         1 UNK         0.0612 
    136 H136       33.9628   -2.2235   -5.2206 H         1 UNK         0.0624 
    137 H137       33.4969   -0.7294   -4.4381 H         1 UNK         0.0624 
@<TRIPOS>BOND
     1    1    2 1    
     2    1   72 1    
     3    1   73 1    
     4    1   74 1    
     5    2    3 2    
     6    2    4 am   BACKBONE|DICT|INTERRES
     7    4    5 1    
     8    4   75 1    
     9    5    6 1    
    10    5   35 1    
    11    5   76 1    
    12    6    7 1    
    13    6   77 1    
    14    6   78 1    
    15    7    8 1    
    16    8    9 1    
    17    8   79 1    
    18    8   80 1    
    19    9   10 ar   
    20    9   14 ar   
    21   10   11 ar   
    22   10   81 1    
    23   11   12 ar   
    24   11   71 1    
    25   12   13 ar   
    26   12   82 1    
    27   13   14 ar   
    28   13   15 1    
    29   14   83 1    
    30   15   16 1    
    31   15   84 1    
    32   15   85 1    
    33   16   17 1    
    34   17   18 1    
    35   17   86 1    
    36   17   87 1    
    37   18   19 1    
    38   18   37 1    
    39   18   88 1    
    40   19   20 am   BACKBONE|DICT|INTERRES
    41   19   89 1    
    42   20   21 2    
    43   20   22 1    
    44   22   23 1    
    45   22   24 1    
    46   22   90 1    
    47   23   91 1    
    48   23   92 1    
    49   23   93 1    
    50   24   25 am   BACKBONE|DICT|INTERRES
    51   24   94 1    
    52   25   26 2    
    53   25   27 1    
    54   27   28 1    
    55   27   29 1    
    56   27   95 1    
    57   28   96 1    
    58   28   97 1    
    59   28   98 1    
    60   29   30 am   BACKBONE|DICT|INTERRES
    61   29   99 1    
    62   30   31 2    
    63   30   32 1    
    64   32   33 1    
    65   32   34 1    
    66   32  100 1    
    67   33  101 1    
    68   33  102 1    
    69   33  103 1    
    70   34   35 am   BACKBONE|DICT|INTERRES
    71   34  104 1    
    72   35   36 2    
    73   37   38 2    
    74   37   39 am   BACKBONE|DICT|INTERRES
    75   39   40 1    
    76   39  105 1    
    77   40   41 1    
    78   40   42 1    
    79   40  106 1    
    80   41  107 1    
    81   41  108 1    
    82   41  109 1    
    83   42   43 2    
    84   42   44 am   BACKBONE|DICT|INTERRES
    85   44   45 1    
    86   44  110 1    
    87   45   46 1    
    88   45   47 1    
    89   45  111 1    
    90   46  112 1    
    91   46  113 1    
    92   46  114 1    
    93   47   48 2    
    94   47   49 am   BACKBONE|DICT|INTERRES
    95   49   50 1    
    96   49  115 1    
    97   50   51 1    
    98   50   52 1    
    99   50  116 1    
   100   51  117 1    
   101   51  118 1    
   102   51  119 1    
   103   52   53 2    
   104   52   54 am   BACKBONE|DICT|INTERRES
   105   54   55 1    
   106   54  120 1    
   107   55   56 1    
   108   55   57 1    
   109   55  121 1    
   110   56  122 1    
   111   56  123 1    
   112   56  124 1    
   113   57   58 2    
   114   57   59 am   BACKBONE|DICT|INTERRES
   115   59   60 1    
   116   59  125 1    
   117   60   61 1    
   118   60   62 1    
   119   60  126 1    
   120   61  127 1    
   121   61  128 1    
   122   61  129 1    
   123   62   63 2    
   124   62   64 am   BACKBONE|DICT|INTERRES
   125   64   65 1    
   126   64  130 1    
   127   65   66 1    
   128   65   69 1    
   129   65  131 1    
   130   66   67 am   BACKBONE|DICT|INTERRES
   131   66   68 2    
   132   67  132 1    
   133   67  133 1    
   134   69   70 1    
   135   69  134 1    
   136   69  135 1    
   137   70   71 1    
   138   71  136 1    
   139   71  137 1    
@<TRIPOS>SUBSTRUCTURE
     1 UNK         1 GROUP             0       ****    0 ROOT    
