@<TRIPOS>MOLECULE
3R137
137   139    1
SMALL
USER_CHARGES


@<TRIPOS>ATOM
      1 CA         26.3904   -4.7491   -8.7970 C.3       0 UNK        -0.2020 
      2 C          26.2514   -5.2046   -7.3523 C.2       0 UNK         0.4855 
      3 O          25.4710   -6.1140   -7.0687 O.2       0 UNK        -0.5197 
      4 N          27.0119   -4.5875   -6.4406 N.am      1 UNK        -0.4892 
      5 CA         26.9603   -4.8482   -4.9994 C.3       1 UNK         0.0835 
      6 C6         28.2837   -4.4244   -4.3132 C.3       12 UNK        -0.0855 
      7 S7         28.5387   -5.2771   -2.7198 S.3       12 UNK        -0.2931 
      8 C8         30.3398   -5.1046   -2.4932 C.3       12 UNK         0.0378 
      9 C9         30.8207   -3.6563   -2.4566 C.ar      12 UNK        -0.0802 
     10 C10        31.9862   -3.3008   -3.1423 C.ar      12 UNK        -0.0944 
     11 C11        32.4593   -1.9863   -3.1082 C.ar      12 UNK        -0.0787 
     12 C12        31.7564   -1.0183   -2.3862 C.ar      12 UNK        -0.0862 
     13 C13        30.5939   -1.3598   -1.6898 C.ar      12 UNK        -0.0733 
     14 C14        30.1349   -2.6801   -1.7230 C.ar      12 UNK        -0.0832 
     15 C15        29.8485   -0.3129   -0.8751 C.3       12 UNK         0.0240 
     16 S16        28.3813    0.3211   -1.7457 S.3       12 UNK        -0.2522 
     17 C17        29.1207    1.3578   -3.0551 C.3       12 UNK        -0.0967 
     18 CA         28.7493    0.8664   -4.4754 C.3       5 UNK         0.0660 
     19 N          27.2964    0.7947   -4.6622 N.am      5 UNK        -0.4015 
     20 C          26.6359    0.3652   -5.7449 C.2       4 UNK         0.4946 
     21 O          27.1835    0.0401   -6.8030 O.2       4 UNK        -0.5353 
     22 CA         25.0997    0.3214   -5.6247 C.3       4 UNK         0.0277 
     23 CB         24.4315   -0.4393   -6.7835 C.3       4 UNK        -0.1981 
     24 N          24.6485   -0.2570   -4.3540 N.am      4 UNK        -0.4209 
     25 C          24.5239    0.4196   -3.2016 C.2       3 UNK         0.4942 
     26 O          24.8849    1.5907   -3.0785 O.2       3 UNK        -0.5208 
     27 CA         23.8985   -0.2944   -1.9883 C.3       3 UNK         0.0250 
     28 CB         22.5499    0.3508   -1.6250 C.3       3 UNK        -0.1990 
     29 N          23.6867   -1.7248   -2.2154 N.am      3 UNK        -0.4232 
     30 C          24.5745   -2.6815   -1.9196 C.2       2 UNK         0.4993 
     31 O          25.6435   -2.4699   -1.3452 O.2       2 UNK        -0.5286 
     32 CA         24.2345   -4.1224   -2.3524 C.3       2 UNK         0.0209 
     33 CB         22.8500   -4.2854   -3.0239 C.3       2 UNK        -0.1931 
     34 N          25.2907   -4.6716   -3.2106 N.am      2 UNK        -0.4546 
     35 C          25.7388   -4.1499   -4.3623 C.2       1 UNK         0.5154 
     36 O          25.2516   -3.1484   -4.8950 O.2       1 UNK        -0.5181 
     37 C          29.4444    1.7359   -5.5406 C.2       5 UNK         0.5014 
     38 O          30.5038    1.3572   -6.0419 O.2       5 UNK        -0.5248 
     39 N          28.8407    2.8827   -5.8727 N.am      6 UNK        -0.4434 
     40 CA         29.2971    3.7669   -6.9473 C.3       6 UNK         0.0363 
     41 CB         29.2088    5.2261   -6.4720 C.3       6 UNK        -0.1936 
     42 C          28.4744    3.5776   -8.2319 C.2       6 UNK         0.5081 
     43 O          29.0041    3.7983   -9.3200 O.2       6 UNK        -0.5248 
     44 N          27.1955    3.2012   -8.0892 N.am      7 UNK        -0.4718 
     45 CA         26.2242    3.1550   -9.1835 C.3       7 UNK         0.0273 
     46 CB         24.8008    3.2213   -8.6062 C.3       7 UNK        -0.1935 
     47 C          26.3752    1.9447  -10.1185 C.2       7 UNK         0.5018 
     48 O          26.1006    2.0911  -11.3106 O.2       7 UNK        -0.5186 
     49 N          26.7808    0.7845   -9.5824 N.am      8 UNK        -0.4240 
     50 CA         26.9129   -0.4596  -10.3481 C.3       8 UNK         0.0235 
     51 CB         25.7371   -1.4006  -10.0409 C.3       8 UNK        -0.2000 
     52 C          28.2500   -1.1605  -10.0921 C.2       8 UNK         0.4941 
     53 O          28.8517   -1.6482  -11.0494 O.2       8 UNK        -0.5273 
     54 N          28.7029   -1.2073   -8.8291 N.am      9 UNK        -0.4262 
     55 CA         29.9919   -1.8081   -8.4639 C.3       9 UNK         0.0264 
     56 CB         30.0313   -2.0864   -6.9535 C.3       9 UNK        -0.1955 
     57 C          31.1879   -0.9419   -8.9036 C.2       9 UNK         0.5031 
     58 O          32.2343   -1.4935   -9.2466 O.2       9 UNK        -0.5390 
     59 N          30.9871    0.3861   -8.9164 N.am      10 UNK        -0.4204 
     60 CA         31.9196    1.4361   -9.3437 C.3       10 UNK         0.0237 
     61 CB         32.1458    1.3693  -10.8691 C.3       10 UNK        -0.1985 
     62 C          33.2316    1.4459   -8.5350 C.2       10 UNK         0.4970 
     63 O          34.3126    1.5779   -9.1134 O.2       10 UNK        -0.4914 
     64 N          33.1079    1.3050   -7.2120 N.am      11 UNK        -0.4285 
     65 CA         34.2287    1.2106   -6.2648 C.3       11 UNK         0.1007 
     66 C          33.9755    1.9146   -4.9027 C.2       11 UNK         0.5703 
     67 N          32.7659    2.3641   -4.5917 N.am      11 UNK        -0.7361 
     68 O          34.9073    2.0821   -4.1195 O.2       11 UNK        -0.4986 
     69 C69        34.7317   -0.2508   -6.1046 C.3       12 UNK        -0.0947 
     70 S70        33.4103   -1.4129   -5.6199 S.3       12 UNK        -0.2240 
     71 C71        33.7336   -1.6117   -3.8454 C.3       12 UNK         0.0194 
     72 H72        26.6776   -5.5890   -9.4290 H         1 UNK         0.0906 
     73 H73        25.4385   -4.3616   -9.1588 H         1 UNK         0.0906 
     74 H74        27.1438   -3.9698   -8.9096 H         1 UNK         0.0906 
     75 H75        27.5884   -3.8104   -6.7241 H         1 UNK         0.3140 
     76 H76        26.8344   -5.9260   -4.8692 H         1 UNK         0.1085 
     77 H77        28.3307   -3.3433   -4.1620 H         1 UNK         0.0836 
     78 H78        29.1304   -4.6759   -4.9544 H         1 UNK         0.0836 
     79 H79        30.6224   -5.5884   -1.5574 H         1 UNK         0.0731 
     80 H80        30.8415   -5.6573   -3.2892 H         1 UNK         0.0731 
     81 H81        32.5318   -4.0462   -3.7049 H         1 UNK         0.1312 
     82 H82        32.1221   -0.0008   -2.3602 H         1 UNK         0.1406 
     83 H83        29.2369   -2.9449   -1.1806 H         1 UNK         0.1631 
     84 H84        30.5058    0.5176   -0.6126 H         1 UNK         0.0717 
     85 H85        29.5280   -0.7534    0.0702 H         1 UNK         0.0717 
     86 H86        30.2045    1.3831   -2.9319 H         1 UNK         0.0934 
     87 H87        28.7795    2.3830   -2.8989 H         1 UNK         0.0934 
     88 H88        29.1310   -0.1497   -4.5862 H         1 UNK         0.0739 
     89 H89        26.7369    1.0534   -3.8568 H         1 UNK         0.3093 
     90 H90        24.7538    1.3558   -5.6761 H         1 UNK         0.0818 
     91 H91        23.3468   -0.4518   -6.6776 H         1 UNK         0.0819 
     92 H92        24.6521    0.0291   -7.7414 H         1 UNK         0.0819 
     93 H93        24.7736   -1.4727   -6.8376 H         1 UNK         0.0819 
     94 H94        24.4699   -1.2557   -4.3648 H         1 UNK         0.3041 
     95 H95        24.5788   -0.1524   -1.1455 H         1 UNK         0.0784 
     96 H96        22.6696    1.4136   -1.4093 H         1 UNK         0.0793 
     97 H97        21.8267    0.2628   -2.4369 H         1 UNK         0.0793 
     98 H98        22.1165   -0.1100   -0.7371 H         1 UNK         0.0793 
     99 H99        22.8366   -1.9885   -2.6931 H         1 UNK         0.3024 
    100 H100       24.2317   -4.7169   -1.4372 H         1 UNK         0.1171 
    101 H101       22.6579   -5.3311   -3.2648 H         1 UNK         0.0786 
    102 H102       22.7673   -3.7188   -3.9522 H         1 UNK         0.0786 
    103 H103       22.0464   -3.9637   -2.3601 H         1 UNK         0.0786 
    104 H104       25.8058   -5.4487   -2.8188 H         1 UNK         0.2977 
    105 H105       28.0012    3.1480   -5.3785 H         1 UNK         0.3127 
    106 H106       30.3417    3.5627   -7.1917 H         1 UNK         0.0770 
    107 H107       28.1868    5.5123   -6.2209 H         1 UNK         0.0814 
    108 H108       29.5576    5.9101   -7.2472 H         1 UNK         0.0814 
    109 H109       29.8302    5.3929   -5.5920 H         1 UNK         0.0814 
    110 H110       26.8415    3.0261   -7.1630 H         1 UNK         0.2983 
    111 H111       26.3703    4.0473   -9.7975 H         1 UNK         0.0947 
    112 H112       24.0555    3.2020   -9.4029 H         1 UNK         0.0806 
    113 H113       24.6439    4.1416   -8.0433 H         1 UNK         0.0806 
    114 H114       24.5888    2.3833   -7.9442 H         1 UNK         0.0806 
    115 H115       26.9796    0.7373   -8.5874 H         1 UNK         0.3000 
    116 H116       26.8869   -0.2414  -11.4181 H         1 UNK         0.0850 
    117 H117       25.7752   -2.2863  -10.6761 H         1 UNK         0.0810 
    118 H118       24.7789   -0.9137  -10.2225 H         1 UNK         0.0810 
    119 H119       25.7537   -1.7409   -9.0062 H         1 UNK         0.0810 
    120 H120       28.1474   -0.8036   -8.0756 H         1 UNK         0.3040 
    121 H121       30.0712   -2.7685   -8.9784 H         1 UNK         0.0766 
    122 H122       30.8788   -2.7248   -6.7018 H         1 UNK         0.0812 
    123 H123       29.1304   -2.5904   -6.6098 H         1 UNK         0.0812 
    124 H124       30.1414   -1.1707   -6.3777 H         1 UNK         0.0812 
    125 H125       30.1005    0.7125   -8.5608 H         1 UNK         0.3205 
    126 H126       31.4295    2.3863   -9.1297 H         1 UNK         0.0754 
    127 H127       32.7421    2.2147  -11.2145 H         1 UNK         0.0769 
    128 H128       31.1997    1.3991  -11.4100 H         1 UNK         0.0769 
    129 H129       32.6703    0.4588  -11.1608 H         1 UNK         0.0769 
    130 H130       32.1789    1.1938   -6.8130 H         1 UNK         0.2981 
    131 H131       35.0576    1.7814   -6.6874 H         1 UNK         0.0541 
    132 H132       31.9722    2.1774   -5.1924 H         1 UNK         0.3459 
    133 H133       32.6373    2.8437   -3.7160 H         1 UNK         0.3459 
    134 H134       35.5627   -0.3097   -5.3995 H         1 UNK         0.0612 
    135 H135       35.1335   -0.5979   -7.0575 H         1 UNK         0.0612 
    136 H136       34.4935   -2.3810   -3.7010 H         1 UNK         0.0624 
    137 H137       34.1454   -0.6894   -3.4338 H         1 UNK         0.0624 
@<TRIPOS>BOND
     1    1    2 1    
     2    1   72 1    
     3    1   73 1    
     4    1   74 1    
     5    2    3 2    
     6    2    4 am   BACKBONE|DICT|INTERRES
     7    4    5 1    
     8    4   75 1    
     9    5    6 1    
    10    5   35 1    
    11    5   76 1    
    12    6    7 1    
    13    6   77 1    
    14    6   78 1    
    15    7    8 1    
    16    8    9 1    
    17    8   79 1    
    18    8   80 1    
    19    9   10 ar   
    20    9   14 ar   
    21   10   11 ar   
    22   10   81 1    
    23   11   12 ar   
    24   11   71 1    
    25   12   13 ar   
    26   12   82 1    
    27   13   14 ar   
    28   13   15 1    
    29   14   83 1    
    30   15   16 1    
    31   15   84 1    
    32   15   85 1    
    33   16   17 1    
    34   17   18 1    
    35   17   86 1    
    36   17   87 1    
    37   18   19 1    
    38   18   37 1    
    39   18   88 1    
    40   19   20 am   BACKBONE|DICT|INTERRES
    41   19   89 1    
    42   20   21 2    
    43   20   22 1    
    44   22   23 1    
    45   22   24 1    
    46   22   90 1    
    47   23   91 1    
    48   23   92 1    
    49   23   93 1    
    50   24   25 am   BACKBONE|DICT|INTERRES
    51   24   94 1    
    52   25   26 2    
    53   25   27 1    
    54   27   28 1    
    55   27   29 1    
    56   27   95 1    
    57   28   96 1    
    58   28   97 1    
    59   28   98 1    
    60   29   30 am   BACKBONE|DICT|INTERRES
    61   29   99 1    
    62   30   31 2    
    63   30   32 1    
    64   32   33 1    
    65   32   34 1    
    66   32  100 1    
    67   33  101 1    
    68   33  102 1    
    69   33  103 1    
    70   34   35 am   BACKBONE|DICT|INTERRES
    71   34  104 1    
    72   35   36 2    
    73   37   38 2    
    74   37   39 am   BACKBONE|DICT|INTERRES
    75   39   40 1    
    76   39  105 1    
    77   40   41 1    
    78   40   42 1    
    79   40  106 1    
    80   41  107 1    
    81   41  108 1    
    82   41  109 1    
    83   42   43 2    
    84   42   44 am   BACKBONE|DICT|INTERRES
    85   44   45 1    
    86   44  110 1    
    87   45   46 1    
    88   45   47 1    
    89   45  111 1    
    90   46  112 1    
    91   46  113 1    
    92   46  114 1    
    93   47   48 2    
    94   47   49 am   BACKBONE|DICT|INTERRES
    95   49   50 1    
    96   49  115 1    
    97   50   51 1    
    98   50   52 1    
    99   50  116 1    
   100   51  117 1    
   101   51  118 1    
   102   51  119 1    
   103   52   53 2    
   104   52   54 am   BACKBONE|DICT|INTERRES
   105   54   55 1    
   106   54  120 1    
   107   55   56 1    
   108   55   57 1    
   109   55  121 1    
   110   56  122 1    
   111   56  123 1    
   112   56  124 1    
   113   57   58 2    
   114   57   59 am   BACKBONE|DICT|INTERRES
   115   59   60 1    
   116   59  125 1    
   117   60   61 1    
   118   60   62 1    
   119   60  126 1    
   120   61  127 1    
   121   61  128 1    
   122   61  129 1    
   123   62   63 2    
   124   62   64 am   BACKBONE|DICT|INTERRES
   125   64   65 1    
   126   64  130 1    
   127   65   66 1    
   128   65   69 1    
   129   65  131 1    
   130   66   67 am   BACKBONE|DICT|INTERRES
   131   66   68 2    
   132   67  132 1    
   133   67  133 1    
   134   69   70 1    
   135   69  134 1    
   136   69  135 1    
   137   70   71 1    
   138   71  136 1    
   139   71  137 1    
@<TRIPOS>SUBSTRUCTURE
     1 UNK         1 GROUP             0       ****    0 ROOT    
