@<TRIPOS>MOLECULE
3R137
137   139    1
SMALL
USER_CHARGES


@<TRIPOS>ATOM
      1 CA         24.6980   -0.0810    3.5150 C.3       0 UNK        -0.2020 
      2 C          25.2094   -0.1906    2.0863 C.2       0 UNK         0.4855 
      3 O          24.4655    0.0917    1.1460 O.2       0 UNK        -0.5197 
      4 N          26.4758   -0.5914    1.9139 N.am      1 UNK        -0.4892 
      5 CA         27.1061   -0.8151    0.6090 C.3       1 UNK         0.0835 
      6 C6         28.6498   -0.8719    0.7363 C.3       12 UNK        -0.0855 
      7 S7         29.4740   -0.4397   -0.8310 S.3       12 UNK        -0.2931 
      8 C8         30.3266   -1.9950   -1.2567 C.3       12 UNK         0.0378 
      9 C9         30.6382   -2.0965   -2.7469 C.ar      12 UNK        -0.0802 
     10 C10        31.2743   -1.0498   -3.4234 C.ar      12 UNK        -0.0944 
     11 C11        31.5341   -1.1435   -4.7929 C.ar      12 UNK        -0.0787 
     12 C12        31.1555   -2.2950   -5.4892 C.ar      12 UNK        -0.0862 
     13 C13        30.5326   -3.3560   -4.8268 C.ar      12 UNK        -0.0733 
     14 C14        30.2947   -3.2542   -3.4528 C.ar      12 UNK        -0.0832 
     15 C15        30.1442   -4.6287   -5.5748 C.3       12 UNK         0.0240 
     16 S16        29.2635   -4.3293   -7.1462 S.3       12 UNK        -0.2522 
     17 C17        27.7038   -3.5708   -6.5873 C.3       12 UNK        -0.0967 
     18 CA         27.3101   -2.3120   -7.4027 C.3       5 UNK         0.0660 
     19 N          25.8654   -2.0652   -7.3172 N.am      5 UNK        -0.4015 
     20 C          25.2008   -1.1627   -8.0546 C.2       4 UNK         0.4946 
     21 O          25.7322   -0.4446   -8.8997 O.2       4 UNK        -0.5353 
     22 CA         23.6939   -1.0006   -7.7935 C.3       4 UNK         0.0277 
     23 CB         22.8921   -1.9544   -8.6931 C.3       4 UNK        -0.1981 
     24 N          23.2916   -1.1948   -6.3989 N.am      4 UNK        -0.4209 
     25 C          23.7651   -0.5259   -5.3376 C.2       3 UNK         0.4942 
     26 O          24.6450    0.3337   -5.4035 O.2       3 UNK        -0.5208 
     27 CA         23.1834   -0.8990   -3.9597 C.3       3 UNK         0.0250 
     28 CB         21.9097   -1.7725   -4.0321 C.3       3 UNK        -0.1990 
     29 N          24.1677   -1.5379   -3.0772 N.am      3 UNK        -0.4232 
     30 C          24.9714   -2.5749   -3.3636 C.2       2 UNK         0.4993 
     31 O          25.0770   -3.0818   -4.4837 O.2       2 UNK        -0.5286 
     32 CA         25.7977   -3.1262   -2.1915 C.3       2 UNK         0.0209 
     33 CB         26.9198   -4.0771   -2.6404 C.3       2 UNK        -0.1931 
     34 N          26.3553   -2.0354   -1.3878 N.am      2 UNK        -0.4546 
     35 C          26.5316   -2.0824   -0.0619 C.2       1 UNK         0.5154 
     36 O          26.2717   -3.0725    0.6280 O.2       1 UNK        -0.5181 
     37 C          28.1200   -1.0678   -6.9794 C.2       5 UNK         0.5014 
     38 O          29.0780   -0.6854   -7.6594 O.2       5 UNK        -0.5248 
     39 N          27.6765   -0.4389   -5.8822 N.am      6 UNK        -0.4434 
     40 CA         28.2430    0.7916   -5.3420 C.3       6 UNK         0.0363 
     41 CB         27.7921    0.9629   -3.8847 C.3       6 UNK        -0.1936 
     42 C          27.8615    2.0140   -6.1865 C.2       6 UNK         0.5081 
     43 O          28.7256    2.8465   -6.4560 O.2       6 UNK        -0.5248 
     44 N          26.5924    2.0898   -6.6149 N.am      7 UNK        -0.4718 
     45 CA         26.0549    3.1759   -7.4422 C.3       7 UNK         0.0273 
     46 CB         24.5314    3.0285   -7.5691 C.3       7 UNK        -0.1935 
     47 C          26.7089    3.2663   -8.8315 C.2       7 UNK         0.5018 
     48 O          26.9788    4.3733   -9.2985 O.2       7 UNK        -0.5186 
     49 N          26.9846    2.1092   -9.4505 N.am      8 UNK        -0.4240 
     50 CA         27.7373    2.0022  -10.7040 C.3       8 UNK         0.0235 
     51 CB         27.4617    0.6299  -11.3413 C.3       8 UNK        -0.2000 
     52 C          29.2538    2.2017  -10.5244 C.2       8 UNK         0.4941 
     53 O          29.9489    2.3671  -11.5276 O.2       8 UNK        -0.5273 
     54 N          29.7391    2.1545   -9.2726 N.am      9 UNK        -0.4262 
     55 CA         31.1443    2.1934   -8.8542 C.3       9 UNK         0.0264 
     56 CB         31.7625    3.5810   -9.1237 C.3       9 UNK        -0.1955 
     57 C          31.9627    1.0376   -9.4597 C.2       9 UNK         0.5031 
     58 O          33.0971    1.2424   -9.8977 O.2       9 UNK        -0.5390 
     59 N          31.3727   -0.1679   -9.4686 N.am      10 UNK        -0.4204 
     60 CA         31.9272   -1.3680  -10.1079 C.3       10 UNK         0.0237 
     61 CB         30.8559   -2.4672  -10.1167 C.3       10 UNK        -0.1985 
     62 C          33.2356   -1.8807   -9.4764 C.2       10 UNK         0.4970 
     63 O          33.9744   -2.6162  -10.1317 O.2       10 UNK        -0.4914 
     64 N          33.5034   -1.4690   -8.2326 N.am      11 UNK        -0.4285 
     65 CA         34.7658   -1.6733   -7.5162 C.3       11 UNK         0.1007 
     66 C          35.9457   -0.7838   -8.0122 C.2       11 UNK         0.5703 
     67 N          35.7266    0.2142   -8.8628 N.am      11 UNK        -0.7361 
     68 O          37.0892   -1.0171   -7.6276 O.2       11 UNK        -0.4986 
     69 C69        34.5549   -1.5891   -5.9805 C.3       12 UNK        -0.0947 
     70 S70        34.0054    0.0436   -5.3570 S.3       12 UNK        -0.2240 
     71 C71        32.1896    0.0135   -5.5295 C.3       12 UNK         0.0194 
     72 H72        25.4628   -0.3471    4.2444 H         1 UNK         0.0906 
     73 H73        23.8460   -0.7447    3.6599 H         1 UNK         0.0906 
     74 H74        24.3743    0.9390    3.7205 H         1 UNK         0.0906 
     75 H75        27.0293   -0.8459    2.7199 H         1 UNK         0.3140 
     76 H76        26.8454    0.0457   -0.0120 H         1 UNK         0.1085 
     77 H77        28.9898   -1.8408    1.1078 H         1 UNK         0.0836 
     78 H78        28.9893   -0.1400    1.4714 H         1 UNK         0.0836 
     79 H79        31.2540   -2.0661   -0.6871 H         1 UNK         0.0731 
     80 H80        29.7029   -2.8356   -0.9480 H         1 UNK         0.0731 
     81 H81        31.5566   -0.1549   -2.8858 H         1 UNK         0.1312 
     82 H82        31.3434   -2.3684   -6.5510 H         1 UNK         0.1406 
     83 H83        29.8366   -4.0818   -2.9293 H         1 UNK         0.1631 
     84 H84        29.5236   -5.2726   -4.9495 H         1 UNK         0.0717 
     85 H85        31.0528   -5.1924   -5.7894 H         1 UNK         0.0717 
     86 H86        26.9345   -4.3383   -6.6884 H         1 UNK         0.0934 
     87 H87        27.7512   -3.3456   -5.5224 H         1 UNK         0.0934 
     88 H88        27.5317   -2.4994   -8.4558 H         1 UNK         0.0739 
     89 H89        25.3621   -2.5703   -6.5959 H         1 UNK         0.3093 
     90 H90        23.4234    0.0201   -8.0649 H         1 UNK         0.0818 
     91 H91        23.1558   -1.8143   -9.7426 H         1 UNK         0.0819 
     92 H92        23.0823   -2.9997   -8.4462 H         1 UNK         0.0819 
     93 H93        21.8199   -1.7771   -8.6057 H         1 UNK         0.0819 
     94 H94        22.5915   -1.9020   -6.2286 H         1 UNK         0.3041 
     95 H95        22.9090    0.0456   -3.4875 H         1 UNK         0.0784 
     96 H96        21.4773   -1.9093   -3.0407 H         1 UNK         0.0793 
     97 H97        21.1398   -1.3054   -4.6481 H         1 UNK         0.0793 
     98 H98        22.1114   -2.7652   -4.4370 H         1 UNK         0.0793 
     99 H99        24.1917   -1.1804   -2.1320 H         1 UNK         0.3024 
    100 H100       25.0951   -3.7003   -1.5825 H         1 UNK         0.1171 
    101 H101       26.5228   -4.9226   -3.2036 H         1 UNK         0.0786 
    102 H102       27.6240   -3.5552   -3.2823 H         1 UNK         0.0786 
    103 H103       27.4678   -4.4815   -1.7894 H         1 UNK         0.0786 
    104 H104       26.6113   -1.1960   -1.8893 H         1 UNK         0.2977 
    105 H105       26.8326   -0.7781   -5.4422 H         1 UNK         0.3127 
    106 H106       29.3300    0.6999   -5.3529 H         1 UNK         0.0770 
    107 H107       26.7140    1.1054   -3.8026 H         1 UNK         0.0814 
    108 H108       28.2738    1.8280   -3.4273 H         1 UNK         0.0814 
    109 H109       28.0619    0.0898   -3.2931 H         1 UNK         0.0814 
    110 H110       25.9322    1.3807   -6.3026 H         1 UNK         0.2983 
    111 H111       26.2624    4.1132   -6.9212 H         1 UNK         0.0947 
    112 H112       24.2619    2.1353   -8.1308 H         1 UNK         0.0806 
    113 H113       24.1010    3.8829   -8.0931 H         1 UNK         0.0806 
    114 H114       24.0520    2.9707   -6.5917 H         1 UNK         0.0806 
    115 H115       26.6647    1.2354   -9.0377 H         1 UNK         0.3000 
    116 H116       27.3834    2.7753  -11.3893 H         1 UNK         0.0850 
    117 H117       26.3965    0.4811  -11.5188 H         1 UNK         0.0810 
    118 H118       27.8123   -0.1851  -10.7061 H         1 UNK         0.0810 
    119 H119       27.9671    0.5344  -12.3033 H         1 UNK         0.0810 
    120 H120       29.0740    2.0445   -8.5172 H         1 UNK         0.3040 
    121 H121       31.1439    2.0388   -7.7746 H         1 UNK         0.0766 
    122 H122       31.8420    3.7897  -10.1910 H         1 UNK         0.0812 
    123 H123       32.7670    3.6487   -8.7040 H         1 UNK         0.0812 
    124 H124       31.1676    4.3733   -8.6693 H         1 UNK         0.0812 
    125 H125       30.4631   -0.2678   -9.0225 H         1 UNK         0.3205 
    126 H126       32.1560   -1.1096  -11.1439 H         1 UNK         0.0754 
    127 H127       31.2229   -3.3748  -10.5980 H         1 UNK         0.0769 
    128 H128       29.9638   -2.1498  -10.6571 H         1 UNK         0.0769 
    129 H129       30.5564   -2.7305   -9.1039 H         1 UNK         0.0769 
    130 H130       32.8503   -0.8434   -7.7909 H         1 UNK         0.2981 
    131 H131       35.0797   -2.6976   -7.7257 H         1 UNK         0.0541 
    132 H132       36.5068    0.7702   -9.1735 H         1 UNK         0.3459 
    133 H133       34.7924    0.4359   -9.1907 H         1 UNK         0.3459 
    134 H134       35.4879   -1.8328   -5.4694 H         1 UNK         0.0612 
    135 H135       33.8568   -2.3603   -5.6582 H         1 UNK         0.0612 
    136 H136       31.9129   -0.0059   -6.5817 H         1 UNK         0.0624 
    137 H137       31.7968    0.9547   -5.1421 H         1 UNK         0.0624 
@<TRIPOS>BOND
     1    1    2 1    
     2    1   72 1    
     3    1   73 1    
     4    1   74 1    
     5    2    3 2    
     6    2    4 am   BACKBONE|DICT|INTERRES
     7    4    5 1    
     8    4   75 1    
     9    5    6 1    
    10    5   35 1    
    11    5   76 1    
    12    6    7 1    
    13    6   77 1    
    14    6   78 1    
    15    7    8 1    
    16    8    9 1    
    17    8   79 1    
    18    8   80 1    
    19    9   10 ar   
    20    9   14 ar   
    21   10   11 ar   
    22   10   81 1    
    23   11   12 ar   
    24   11   71 1    
    25   12   13 ar   
    26   12   82 1    
    27   13   14 ar   
    28   13   15 1    
    29   14   83 1    
    30   15   16 1    
    31   15   84 1    
    32   15   85 1    
    33   16   17 1    
    34   17   18 1    
    35   17   86 1    
    36   17   87 1    
    37   18   19 1    
    38   18   37 1    
    39   18   88 1    
    40   19   20 am   BACKBONE|DICT|INTERRES
    41   19   89 1    
    42   20   21 2    
    43   20   22 1    
    44   22   23 1    
    45   22   24 1    
    46   22   90 1    
    47   23   91 1    
    48   23   92 1    
    49   23   93 1    
    50   24   25 am   BACKBONE|DICT|INTERRES
    51   24   94 1    
    52   25   26 2    
    53   25   27 1    
    54   27   28 1    
    55   27   29 1    
    56   27   95 1    
    57   28   96 1    
    58   28   97 1    
    59   28   98 1    
    60   29   30 am   BACKBONE|DICT|INTERRES
    61   29   99 1    
    62   30   31 2    
    63   30   32 1    
    64   32   33 1    
    65   32   34 1    
    66   32  100 1    
    67   33  101 1    
    68   33  102 1    
    69   33  103 1    
    70   34   35 am   BACKBONE|DICT|INTERRES
    71   34  104 1    
    72   35   36 2    
    73   37   38 2    
    74   37   39 am   BACKBONE|DICT|INTERRES
    75   39   40 1    
    76   39  105 1    
    77   40   41 1    
    78   40   42 1    
    79   40  106 1    
    80   41  107 1    
    81   41  108 1    
    82   41  109 1    
    83   42   43 2    
    84   42   44 am   BACKBONE|DICT|INTERRES
    85   44   45 1    
    86   44  110 1    
    87   45   46 1    
    88   45   47 1    
    89   45  111 1    
    90   46  112 1    
    91   46  113 1    
    92   46  114 1    
    93   47   48 2    
    94   47   49 am   BACKBONE|DICT|INTERRES
    95   49   50 1    
    96   49  115 1    
    97   50   51 1    
    98   50   52 1    
    99   50  116 1    
   100   51  117 1    
   101   51  118 1    
   102   51  119 1    
   103   52   53 2    
   104   52   54 am   BACKBONE|DICT|INTERRES
   105   54   55 1    
   106   54  120 1    
   107   55   56 1    
   108   55   57 1    
   109   55  121 1    
   110   56  122 1    
   111   56  123 1    
   112   56  124 1    
   113   57   58 2    
   114   57   59 am   BACKBONE|DICT|INTERRES
   115   59   60 1    
   116   59  125 1    
   117   60   61 1    
   118   60   62 1    
   119   60  126 1    
   120   61  127 1    
   121   61  128 1    
   122   61  129 1    
   123   62   63 2    
   124   62   64 am   BACKBONE|DICT|INTERRES
   125   64   65 1    
   126   64  130 1    
   127   65   66 1    
   128   65   69 1    
   129   65  131 1    
   130   66   67 am   BACKBONE|DICT|INTERRES
   131   66   68 2    
   132   67  132 1    
   133   67  133 1    
   134   69   70 1    
   135   69  134 1    
   136   69  135 1    
   137   70   71 1    
   138   71  136 1    
   139   71  137 1    
@<TRIPOS>SUBSTRUCTURE
     1 UNK         1 GROUP             0       ****    0 ROOT    
