@<TRIPOS>MOLECULE
3R137
137   139    1
SMALL
USER_CHARGES


@<TRIPOS>ATOM
      1 CA         27.0658   -0.4530    1.0530 C.3       0 UNK        -0.2020 
      2 C          26.9062   -0.9063   -0.3894 C.2       0 UNK         0.4855 
      3 O          27.1099   -0.1130   -1.3081 O.2       0 UNK        -0.5197 
      4 N          26.5411   -2.1768   -0.6027 N.am      1 UNK        -0.4892 
      5 CA         26.3677   -2.8135   -1.9150 C.3       1 UNK         0.0835 
      6 C6         26.4695   -4.3626   -1.8247 C.3       12 UNK        -0.0855 
      7 S7         27.9609   -4.9837   -0.9693 S.3       12 UNK        -0.2931 
      8 C8         29.1406   -5.2726   -2.3394 C.3       12 UNK         0.0378 
      9 C9         30.1905   -4.1778   -2.5596 C.ar      12 UNK        -0.0802 
     10 C10        31.2357   -4.4297   -3.4558 C.ar      12 UNK        -0.0944 
     11 C11        32.2534   -3.4911   -3.6596 C.ar      12 UNK        -0.0787 
     12 C12        32.2237   -2.2832   -2.9590 C.ar      12 UNK        -0.0862 
     13 C13        31.1675   -1.9974   -2.0899 C.ar      12 UNK        -0.0733 
     14 C14        30.1632   -2.9482   -1.8883 C.ar      12 UNK        -0.0832 
     15 C15        31.0890   -0.6507   -1.3829 C.3       12 UNK         0.0240 
     16 S16        30.8540    0.7343   -2.5461 S.3       12 UNK        -0.2522 
     17 C17        29.4945    0.1348   -3.6124 C.3       12 UNK        -0.0967 
     18 CA         30.0110   -0.3380   -5.0052 C.3       5 UNK         0.0660 
     19 N          29.2083   -1.4271   -5.5646 N.am      5 UNK        -0.4015 
     20 C          27.9215   -1.3369   -5.9181 C.2       4 UNK         0.4946 
     21 O          27.2565   -0.2991   -5.8200 O.2       4 UNK        -0.5353 
     22 CA         27.2556   -2.6152   -6.4534 C.3       4 UNK         0.0277 
     23 CB         27.7064   -3.8898   -5.7104 C.3       4 UNK        -0.1981 
     24 N          25.8225   -2.4191   -6.3062 N.am      4 UNK        -0.4209 
     25 C          24.8232   -3.0618   -6.9172 C.2       3 UNK         0.4942 
     26 O          24.9925   -3.9761   -7.7249 O.2       3 UNK        -0.5208 
     27 CA         23.3940   -2.6082   -6.5459 C.3       3 UNK         0.0250 
     28 CB         22.3943   -3.7784   -6.5710 C.3       3 UNK        -0.1990 
     29 N          23.3688   -1.9951   -5.2146 N.am      3 UNK        -0.4232 
     30 C          23.5270   -0.6962   -4.9375 C.2       2 UNK         0.4993 
     31 O          23.5461    0.1879   -5.7922 O.2       2 UNK        -0.5286 
     32 CA         23.7809   -0.3318   -3.4635 C.3       2 UNK         0.0209 
     33 CB         22.4973   -0.4629   -2.6205 C.3       2 UNK        -0.1931 
     34 N          24.9104   -1.0546   -2.8490 N.am      2 UNK        -0.4546 
     35 C          25.0480   -2.3648   -2.5911 C.2       1 UNK         0.5154 
     36 O          24.1807   -3.2000   -2.8561 O.2       1 UNK        -0.5181 
     37 C          30.2071    0.8129   -6.0167 C.2       5 UNK         0.5014 
     38 O          30.0499    0.6128   -7.2250 O.2       5 UNK        -0.5248 
     39 N          30.5331    2.0045   -5.5046 N.am      6 UNK        -0.4434 
     40 CA         30.5528    3.2591   -6.2561 C.3       6 UNK         0.0363 
     41 CB         31.3272    4.3151   -5.4522 C.3       6 UNK        -0.1936 
     42 C          29.1377    3.7661   -6.5964 C.2       6 UNK         0.5081 
     43 O          29.0008    4.5754   -7.5120 O.2       6 UNK        -0.5248 
     44 N          28.1152    3.2756   -5.8762 N.am      7 UNK        -0.4718 
     45 CA         26.6978    3.5876   -6.0796 C.3       7 UNK         0.0273 
     46 CB         25.8638    2.9666   -4.9457 C.3       7 UNK        -0.1935 
     47 C          26.1864    3.1306   -7.4548 C.2       7 UNK         0.5018 
     48 O          25.5966    3.9348   -8.1774 O.2       7 UNK        -0.5186 
     49 N          26.4640    1.8677   -7.8079 N.am      8 UNK        -0.4240 
     50 CA         26.1902    1.3136   -9.1386 C.3       8 UNK         0.0235 
     51 CB         25.8622   -0.1798   -9.0003 C.3       8 UNK        -0.2000 
     52 C          27.3578    1.5183  -10.1229 C.2       8 UNK         0.4941 
     53 O          27.2150    1.1619  -11.2930 O.2       8 UNK        -0.5273 
     54 N          28.4883    2.0540   -9.6348 N.am      9 UNK        -0.4262 
     55 CA         29.7732    2.2294  -10.3255 C.3       9 UNK         0.0264 
     56 CB         29.6525    3.2480  -11.4786 C.3       9 UNK        -0.1955 
     57 C          30.3966    0.8872  -10.7596 C.2       9 UNK         0.5031 
     58 O          30.9928    0.7962  -11.8348 O.2       9 UNK        -0.5390 
     59 N          30.2402   -0.1310   -9.9056 N.am      10 UNK        -0.4204 
     60 CA         30.7778   -1.4774  -10.0887 C.3       10 UNK         0.0237 
     61 CB         29.8280   -2.4904   -9.4297 C.3       10 UNK        -0.1985 
     62 C          32.1872   -1.6096   -9.4939 C.2       10 UNK         0.4970 
     63 O          32.9938   -2.3657  -10.0367 O.2       10 UNK        -0.4914 
     64 N          32.4517   -0.8836   -8.4005 N.am      11 UNK        -0.4285 
     65 CA         33.7361   -0.8527   -7.6879 C.3       11 UNK         0.1007 
     66 C          34.2600    0.6031   -7.5905 C.2       11 UNK         0.5703 
     67 N          35.5635    0.7820   -7.4271 N.am      11 UNK        -0.7361 
     68 O          33.4999    1.5691   -7.6349 O.2       11 UNK        -0.4986 
     69 C69        33.6448   -1.5021   -6.2785 C.3       12 UNK        -0.0947 
     70 S70        33.0158   -3.2168   -6.3110 S.3       12 UNK        -0.2240 
     71 C71        33.3904   -3.7926   -4.6252 C.3       12 UNK         0.0194 
     72 H72        26.8767   -1.2617    1.7587 H         1 UNK         0.0906 
     73 H73        28.0785   -0.0869    1.2194 H         1 UNK         0.0906 
     74 H74        26.3705    0.3576    1.2696 H         1 UNK         0.0906 
     75 H75        26.3749   -2.7820    0.1894 H         1 UNK         0.3140 
     76 H76        27.1776   -2.4726   -2.5633 H         1 UNK         0.1085 
     77 H77        25.6123   -4.7587   -1.2763 H         1 UNK         0.0836 
     78 H78        26.4095   -4.8125   -2.8170 H         1 UNK         0.0836 
     79 H79        28.6021   -5.4563   -3.2688 H         1 UNK         0.0731 
     80 H80        29.6676   -6.2011   -2.1145 H         1 UNK         0.0731 
     81 H81        31.2668   -5.3705   -3.9889 H         1 UNK         0.1312 
     82 H82        33.0046   -1.5508   -3.1124 H         1 UNK         0.1406 
     83 H83        29.3627   -2.7167   -1.2016 H         1 UNK         0.1631 
     84 H84        32.0050   -0.4866   -0.8140 H         1 UNK         0.0717 
     85 H85        30.2717   -0.6379   -0.6599 H         1 UNK         0.0717 
     86 H86        28.9937   -0.6858   -3.0997 H         1 UNK         0.0934 
     87 H87        28.7259    0.9049   -3.7002 H         1 UNK         0.0934 
     88 H88        30.9927   -0.7809   -4.8682 H         1 UNK         0.0739 
     89 H89        29.6919   -2.3042   -5.6899 H         1 UNK         0.3093 
     90 H90        27.4892   -2.7091   -7.5147 H         1 UNK         0.0818 
     91 H91        27.1245   -4.7591   -6.0170 H         1 UNK         0.0819 
     92 H92        28.7515   -4.1255   -5.9141 H         1 UNK         0.0819 
     93 H93        27.5955   -3.7797   -4.6331 H         1 UNK         0.0819 
     94 H94        25.5951   -1.6019   -5.7521 H         1 UNK         0.3041 
     95 H95        23.0821   -1.8757   -7.2933 H         1 UNK         0.0784 
     96 H96        22.3329   -4.2230   -7.5652 H         1 UNK         0.0793 
     97 H97        22.6825   -4.5679   -5.8756 H         1 UNK         0.0793 
     98 H98        21.3905   -3.4469   -6.3047 H         1 UNK         0.0793 
     99 H99        23.4409   -2.6343   -4.4241 H         1 UNK         0.3024 
    100 H100       24.0664    0.7218   -3.4532 H         1 UNK         0.1171 
    101 H101       22.6605   -0.1213   -1.5983 H         1 UNK         0.0786 
    102 H102       21.6939    0.1441   -3.0401 H         1 UNK         0.0786 
    103 H103       22.1354   -1.4904   -2.5753 H         1 UNK         0.0786 
    104 H104       25.6845   -0.4674   -2.5444 H         1 UNK         0.2977 
    105 H105       30.6895    2.0644   -4.5058 H         1 UNK         0.3127 
    106 H106       31.0812    3.0897   -7.1968 H         1 UNK         0.0770 
    107 H107       30.8533    4.5218   -4.4918 H         1 UNK         0.0814 
    108 H108       31.3823    5.2576   -5.9988 H         1 UNK         0.0814 
    109 H109       32.3513    3.9933   -5.2615 H         1 UNK         0.0814 
    110 H110       28.3257    2.6084   -5.1500 H         1 UNK         0.2983 
    111 H111       26.5865    4.6731   -6.0306 H         1 UNK         0.0947 
    112 H112       24.8028    3.1826   -5.0791 H         1 UNK         0.0806 
    113 H113       26.1552    3.3647   -3.9737 H         1 UNK         0.0806 
    114 H114       25.9696    1.8819   -4.9088 H         1 UNK         0.0806 
    115 H115       26.8981    1.2481   -7.1289 H         1 UNK         0.3000 
    116 H116       25.3152    1.8086   -9.5654 H         1 UNK         0.0850 
    117 H117       25.5420   -0.6015   -9.9539 H         1 UNK         0.0810 
    118 H118       25.0542   -0.3398   -8.2868 H         1 UNK         0.0810 
    119 H119       26.7300   -0.7488   -8.6701 H         1 UNK         0.0810 
    120 H120       28.4848    2.3119   -8.6581 H         1 UNK         0.3040 
    121 H121       30.4575    2.6513   -9.5882 H         1 UNK         0.0766 
    122 H122       29.0306    2.8709  -12.2908 H         1 UNK         0.0812 
    123 H123       30.6318    3.4776  -11.9003 H         1 UNK         0.0812 
    124 H124       29.2213    4.1874  -11.1325 H         1 UNK         0.0812 
    125 H125       29.8310    0.0784   -8.9975 H         1 UNK         0.3205 
    126 H126       30.8346   -1.7041  -11.1556 H         1 UNK         0.0754 
    127 H127       30.1708   -3.5121   -9.5986 H         1 UNK         0.0769 
    128 H128       28.8196   -2.4138   -9.8372 H         1 UNK         0.0769 
    129 H129       29.7706   -2.3413   -8.3516 H         1 UNK         0.0769 
    130 H130       31.7489   -0.2418   -8.0530 H         1 UNK         0.2981 
    131 H131       34.4783   -1.4096   -8.2629 H         1 UNK         0.0541 
    132 H132       36.1984    0.0002   -7.3819 H         1 UNK         0.3459 
    133 H133       35.9205    1.7216   -7.3522 H         1 UNK         0.3459 
    134 H134       33.0194   -0.9043   -5.6191 H         1 UNK         0.0612 
    135 H135       34.6340   -1.5184   -5.8177 H         1 UNK         0.0612 
    136 H136       33.5663   -4.8688   -4.6594 H         1 UNK         0.0624 
    137 H137       34.3219   -3.3473   -4.2727 H         1 UNK         0.0624 
@<TRIPOS>BOND
     1    1    2 1    
     2    1   72 1    
     3    1   73 1    
     4    1   74 1    
     5    2    3 2    
     6    2    4 am   BACKBONE|DICT|INTERRES
     7    4    5 1    
     8    4   75 1    
     9    5    6 1    
    10    5   35 1    
    11    5   76 1    
    12    6    7 1    
    13    6   77 1    
    14    6   78 1    
    15    7    8 1    
    16    8    9 1    
    17    8   79 1    
    18    8   80 1    
    19    9   10 ar   
    20    9   14 ar   
    21   10   11 ar   
    22   10   81 1    
    23   11   12 ar   
    24   11   71 1    
    25   12   13 ar   
    26   12   82 1    
    27   13   14 ar   
    28   13   15 1    
    29   14   83 1    
    30   15   16 1    
    31   15   84 1    
    32   15   85 1    
    33   16   17 1    
    34   17   18 1    
    35   17   86 1    
    36   17   87 1    
    37   18   19 1    
    38   18   37 1    
    39   18   88 1    
    40   19   20 am   BACKBONE|DICT|INTERRES
    41   19   89 1    
    42   20   21 2    
    43   20   22 1    
    44   22   23 1    
    45   22   24 1    
    46   22   90 1    
    47   23   91 1    
    48   23   92 1    
    49   23   93 1    
    50   24   25 am   BACKBONE|DICT|INTERRES
    51   24   94 1    
    52   25   26 2    
    53   25   27 1    
    54   27   28 1    
    55   27   29 1    
    56   27   95 1    
    57   28   96 1    
    58   28   97 1    
    59   28   98 1    
    60   29   30 am   BACKBONE|DICT|INTERRES
    61   29   99 1    
    62   30   31 2    
    63   30   32 1    
    64   32   33 1    
    65   32   34 1    
    66   32  100 1    
    67   33  101 1    
    68   33  102 1    
    69   33  103 1    
    70   34   35 am   BACKBONE|DICT|INTERRES
    71   34  104 1    
    72   35   36 2    
    73   37   38 2    
    74   37   39 am   BACKBONE|DICT|INTERRES
    75   39   40 1    
    76   39  105 1    
    77   40   41 1    
    78   40   42 1    
    79   40  106 1    
    80   41  107 1    
    81   41  108 1    
    82   41  109 1    
    83   42   43 2    
    84   42   44 am   BACKBONE|DICT|INTERRES
    85   44   45 1    
    86   44  110 1    
    87   45   46 1    
    88   45   47 1    
    89   45  111 1    
    90   46  112 1    
    91   46  113 1    
    92   46  114 1    
    93   47   48 2    
    94   47   49 am   BACKBONE|DICT|INTERRES
    95   49   50 1    
    96   49  115 1    
    97   50   51 1    
    98   50   52 1    
    99   50  116 1    
   100   51  117 1    
   101   51  118 1    
   102   51  119 1    
   103   52   53 2    
   104   52   54 am   BACKBONE|DICT|INTERRES
   105   54   55 1    
   106   54  120 1    
   107   55   56 1    
   108   55   57 1    
   109   55  121 1    
   110   56  122 1    
   111   56  123 1    
   112   56  124 1    
   113   57   58 2    
   114   57   59 am   BACKBONE|DICT|INTERRES
   115   59   60 1    
   116   59  125 1    
   117   60   61 1    
   118   60   62 1    
   119   60  126 1    
   120   61  127 1    
   121   61  128 1    
   122   61  129 1    
   123   62   63 2    
   124   62   64 am   BACKBONE|DICT|INTERRES
   125   64   65 1    
   126   64  130 1    
   127   65   66 1    
   128   65   69 1    
   129   65  131 1    
   130   66   67 am   BACKBONE|DICT|INTERRES
   131   66   68 2    
   132   67  132 1    
   133   67  133 1    
   134   69   70 1    
   135   69  134 1    
   136   69  135 1    
   137   70   71 1    
   138   71  136 1    
   139   71  137 1    
@<TRIPOS>SUBSTRUCTURE
     1 UNK         1 GROUP             0       ****    0 ROOT    
