@<TRIPOS>MOLECULE
3R137
137   139    1
SMALL
USER_CHARGES


@<TRIPOS>ATOM
      1 CA         31.5313    1.6656    0.5985 C.3       0 UNK        -0.2020 
      2 C          30.5282    0.5365    0.4156 C.2       0 UNK         0.4855 
      3 O          29.9349    0.0908    1.3983 O.2       0 UNK        -0.5197 
      4 N          30.3432    0.0715   -0.8293 N.am      1 UNK        -0.4892 
      5 CA         29.4031   -0.9843   -1.2356 C.3       1 UNK         0.0835 
      6 C6         29.7982   -2.3704   -0.6385 C.3       12 UNK        -0.0855 
      7 S7         29.0060   -3.9050   -1.2645 S.3       12 UNK        -0.2931 
      8 C8         28.1581   -3.5145   -2.8353 C.3       12 UNK         0.0378 
      9 C9         28.9955   -3.7864   -4.0816 C.ar      12 UNK        -0.0802 
     10 C10        30.3210   -3.3513   -4.1874 C.ar      12 UNK        -0.0944 
     11 C11        31.0670   -3.6120   -5.3416 C.ar      12 UNK        -0.0787 
     12 C12        30.4689   -4.2876   -6.4109 C.ar      12 UNK        -0.0862 
     13 C13        29.1461   -4.7322   -6.3190 C.ar      12 UNK        -0.0733 
     14 C14        28.4218   -4.4838   -5.1494 C.ar      12 UNK        -0.0832 
     15 C15        28.5218   -5.5402   -7.4521 C.3       12 UNK         0.0240 
     16 S16        27.7941   -4.5026   -8.7629 S.3       12 UNK        -0.2522 
     17 C17        26.2841   -3.8483   -7.9604 C.3       12 UNK        -0.0967 
     18 CA         25.9702   -2.3550   -8.2456 C.3       5 UNK         0.0660 
     19 N          24.7610   -1.9390   -7.5274 N.am      5 UNK        -0.4015 
     20 C          24.1799   -0.7315   -7.5861 C.2       4 UNK         0.4946 
     21 O          24.5395    0.1678   -8.3465 O.2       4 UNK        -0.5353 
     22 CA         23.0412   -0.4606   -6.5837 C.3       4 UNK         0.0277 
     23 CB         21.6756   -0.6911   -7.2506 C.3       4 UNK        -0.1981 
     24 N          23.1176   -1.2458   -5.3410 N.am      4 UNK        -0.4209 
     25 C          24.1431   -1.2293   -4.4769 C.2       3 UNK         0.4942 
     26 O          25.1815   -0.5889   -4.6527 O.2       3 UNK        -0.5208 
     27 CA         24.0232   -2.1304   -3.2460 C.3       3 UNK         0.0250 
     28 CB         24.4102   -3.5778   -3.6047 C.3       3 UNK        -0.1990 
     29 N          24.9027   -1.6044   -2.2020 N.am      3 UNK        -0.4232 
     30 C          24.7786   -1.8474   -0.8921 C.2       2 UNK         0.4993 
     31 O          23.9465   -2.6274   -0.4244 O.2       2 UNK        -0.5286 
     32 CA         25.7442   -1.1010    0.0461 C.3       2 UNK         0.0209 
     33 CB         25.5430   -1.4781    1.5267 C.3       2 UNK        -0.1931 
     34 N          27.1358   -1.3721   -0.3169 N.am      2 UNK        -0.4546 
     35 C          27.9451   -0.5293   -0.9692 C.2       1 UNK         0.5154 
     36 O          27.5765    0.5714   -1.3836 O.2       1 UNK        -0.5181 
     37 C          27.1730   -1.4262   -7.9622 C.2       5 UNK         0.5014 
     38 O          27.9548   -1.1713   -8.8783 O.2       5 UNK        -0.5248 
     39 N          27.2787   -0.8849   -6.7377 N.am      6 UNK        -0.4434 
     40 CA         28.3677    0.0025   -6.3254 C.3       6 UNK         0.0363 
     41 CB         28.2470    0.3057   -4.8261 C.3       6 UNK        -0.1936 
     42 C          28.4460    1.3118   -7.1252 C.2       6 UNK         0.5081 
     43 O          29.5451    1.8387   -7.2892 O.2       6 UNK        -0.5248 
     44 N          27.3061    1.7986   -7.6350 N.am      7 UNK        -0.4718 
     45 CA         27.2403    2.9783   -8.5004 C.3       7 UNK         0.0273 
     46 CB         25.7912    3.4859   -8.5640 C.3       7 UNK        -0.1935 
     47 C          27.7828    2.7085   -9.9150 C.2       7 UNK         0.5018 
     48 O          28.3253    3.6243  -10.5337 O.2       7 UNK        -0.5186 
     49 N          27.6355    1.4667  -10.3971 N.am      8 UNK        -0.4240 
     50 CA         28.1396    1.0166  -11.6951 C.3       8 UNK         0.0235 
     51 CB         27.2586   -0.1302  -12.2186 C.3       8 UNK        -0.2000 
     52 C          29.6086    0.5784  -11.6047 C.2       8 UNK         0.4941 
     53 O          30.4055    0.9414  -12.4701 O.2       8 UNK        -0.5273 
     54 N          29.9399   -0.1874  -10.5566 N.am      9 UNK        -0.4262 
     55 CA         31.2744   -0.7302  -10.2949 C.3       9 UNK         0.0264 
     56 CB         31.1350   -1.9286   -9.3414 C.3       9 UNK        -0.1955 
     57 C          32.2741    0.3012   -9.7364 C.2       9 UNK         0.5031 
     58 O          33.4723    0.0154   -9.7313 O.2       9 UNK        -0.5390 
     59 N          31.7753    1.4620   -9.2822 N.am      10 UNK        -0.4204 
     60 CA         32.5012    2.5553   -8.6224 C.3       10 UNK         0.0237 
     61 CB         33.5542    3.1865   -9.5591 C.3       10 UNK        -0.1985 
     62 C          33.0690    2.1208   -7.2574 C.2       10 UNK         0.4970 
     63 O          34.2458    2.3476   -6.9689 O.2       10 UNK        -0.4914 
     64 N          32.2004    1.5035   -6.4499 N.am      11 UNK        -0.4285 
     65 CA         32.4808    1.0019   -5.0953 C.3       11 UNK         0.1007 
     66 C          31.8445    1.8846   -3.9838 C.2       11 UNK         0.5703 
     67 N          31.2743    3.0434   -4.2919 N.am      11 UNK        -0.7361 
     68 O          31.8540    1.5048   -2.8158 O.2       11 UNK        -0.4986 
     69 C69        32.0640   -0.4846   -4.9274 C.3       12 UNK        -0.0947 
     70 S70        32.7889   -1.5896   -6.1799 S.3       12 UNK        -0.2240 
     71 C71        32.5364   -3.2156   -5.4086 C.3       12 UNK         0.0194 
     72 H72        32.1090    1.5141    1.5101 H         1 UNK         0.0906 
     73 H73        32.2329    1.7247   -0.2325 H         1 UNK         0.0906 
     74 H74        31.0117    2.6199    0.6786 H         1 UNK         0.0906 
     75 H75        30.8466    0.5290   -1.5882 H         1 UNK         0.3140 
     76 H76        29.5089   -1.0445   -2.3177 H         1 UNK         0.1085 
     77 H77        30.8699   -2.5127   -0.7871 H         1 UNK         0.0836 
     78 H78        29.6712   -2.3622    0.4454 H         1 UNK         0.0836 
     79 H79        27.7732   -2.4997   -2.8685 H         1 UNK         0.0731 
     80 H80        27.2748   -4.1531   -2.8515 H         1 UNK         0.0731 
     81 H81        30.7854   -2.8310   -3.3625 H         1 UNK         0.1312 
     82 H82        31.0426   -4.4921   -7.3046 H         1 UNK         0.1406 
     83 H83        27.4085   -4.8500   -5.0639 H         1 UNK         0.1631 
     84 H84        27.7598   -6.2182   -7.0645 H         1 UNK         0.0717 
     85 H85        29.2849   -6.1769   -7.9021 H         1 UNK         0.0717 
     86 H86        25.4482   -4.4647   -8.2951 H         1 UNK         0.0934 
     87 H87        26.3487   -4.0064   -6.8856 H         1 UNK         0.0934 
     88 H88        25.7505   -2.2588   -9.3110 H         1 UNK         0.0739 
     89 H89        24.3732   -2.6086   -6.8806 H         1 UNK         0.3093 
     90 H90        23.1105    0.5929   -6.3042 H         1 UNK         0.0818 
     91 H91        20.8571   -0.3958   -6.5938 H         1 UNK         0.0819 
     92 H92        21.5826   -0.1008   -8.1636 H         1 UNK         0.0819 
     93 H93        21.5290   -1.7370   -7.5230 H         1 UNK         0.0819 
     94 H94        22.3117   -1.8145   -5.1214 H         1 UNK         0.3041 
     95 H95        22.9916   -2.1002   -2.8883 H         1 UNK         0.0784 
     96 H96        23.6859   -4.0161   -4.2922 H         1 UNK         0.0793 
     97 H97        25.3843   -3.6236   -4.0904 H         1 UNK         0.0793 
     98 H98        24.4418   -4.2183   -2.7232 H         1 UNK         0.0793 
     99 H99        25.5757   -0.9210   -2.5305 H         1 UNK         0.3024 
    100 H100       25.5239   -0.0356   -0.0550 H         1 UNK         0.1171 
    101 H101       26.2149   -0.9126    2.1728 H         1 UNK         0.0786 
    102 H102       24.5247   -1.2606    1.8521 H         1 UNK         0.0786 
    103 H103       25.7239   -2.5393    1.7030 H         1 UNK         0.0786 
    104 H104       27.4982   -2.2827   -0.0653 H         1 UNK         0.2977 
    105 H105       26.5494   -1.0474   -6.0504 H         1 UNK         0.3127 
    106 H106       29.2984   -0.5402   -6.4992 H         1 UNK         0.0770 
    107 H107       27.3485    0.8811   -4.6008 H         1 UNK         0.0814 
    108 H108       29.0944    0.8903   -4.4698 H         1 UNK         0.0814 
    109 H109       28.2111   -0.6121   -4.2436 H         1 UNK         0.0814 
    110 H110       26.4447    1.2879   -7.4860 H         1 UNK         0.2983 
    111 H111       27.8568    3.7635   -8.0565 H         1 UNK         0.0947 
    112 H112       25.7224    4.3922   -9.1672 H         1 UNK         0.0806 
    113 H113       25.4110    3.7280   -7.5715 H         1 UNK         0.0806 
    114 H114       25.1229    2.7477   -9.0089 H         1 UNK         0.0806 
    115 H115       27.2229    0.7629   -9.7982 H         1 UNK         0.3000 
    116 H116       28.0777    1.8409  -12.4094 H         1 UNK         0.0850 
    117 H117       27.6046   -0.4719  -13.1950 H         1 UNK         0.0810 
    118 H118       26.2228    0.1890  -12.3357 H         1 UNK         0.0810 
    119 H119       27.2689   -0.9918  -11.5497 H         1 UNK         0.0810 
    120 H120       29.2021   -0.4837   -9.9158 H         1 UNK         0.3040 
    121 H121       31.6845   -1.0959  -11.2387 H         1 UNK         0.0766 
    122 H122       30.7079   -1.6316   -8.3828 H         1 UNK         0.0812 
    123 H123       32.1040   -2.3871   -9.1404 H         1 UNK         0.0812 
    124 H124       30.4917   -2.7010   -9.7634 H         1 UNK         0.0812 
    125 H125       30.7686    1.5602   -9.2871 H         1 UNK         0.3205 
    126 H126       31.7567    3.3241   -8.4095 H         1 UNK         0.0754 
    127 H127       33.9904    4.0783   -9.1075 H         1 UNK         0.0769 
    128 H128       33.1099    3.4877  -10.5078 H         1 UNK         0.0769 
    129 H129       34.3739    2.5008   -9.7751 H         1 UNK         0.0769 
    130 H130       31.2318    1.4408   -6.7557 H         1 UNK         0.2981 
    131 H131       33.5556    1.0526   -4.9145 H         1 UNK         0.0541 
    132 H132       31.2427    3.3617   -5.2468 H         1 UNK         0.3459 
    133 H133       30.8663    3.6011   -3.5590 H         1 UNK         0.3459 
    134 H134       30.9816   -0.5900   -4.9669 H         1 UNK         0.0612 
    135 H135       32.3698   -0.8491   -3.9450 H         1 UNK         0.0612 
    136 H136       33.0896   -3.9601   -5.9828 H         1 UNK         0.0624 
    137 H137       32.9779   -3.2165   -4.4109 H         1 UNK         0.0624 
@<TRIPOS>BOND
     1    1    2 1    
     2    1   72 1    
     3    1   73 1    
     4    1   74 1    
     5    2    3 2    
     6    2    4 am   BACKBONE|DICT|INTERRES
     7    4    5 1    
     8    4   75 1    
     9    5    6 1    
    10    5   35 1    
    11    5   76 1    
    12    6    7 1    
    13    6   77 1    
    14    6   78 1    
    15    7    8 1    
    16    8    9 1    
    17    8   79 1    
    18    8   80 1    
    19    9   10 ar   
    20    9   14 ar   
    21   10   11 ar   
    22   10   81 1    
    23   11   12 ar   
    24   11   71 1    
    25   12   13 ar   
    26   12   82 1    
    27   13   14 ar   
    28   13   15 1    
    29   14   83 1    
    30   15   16 1    
    31   15   84 1    
    32   15   85 1    
    33   16   17 1    
    34   17   18 1    
    35   17   86 1    
    36   17   87 1    
    37   18   19 1    
    38   18   37 1    
    39   18   88 1    
    40   19   20 am   BACKBONE|DICT|INTERRES
    41   19   89 1    
    42   20   21 2    
    43   20   22 1    
    44   22   23 1    
    45   22   24 1    
    46   22   90 1    
    47   23   91 1    
    48   23   92 1    
    49   23   93 1    
    50   24   25 am   BACKBONE|DICT|INTERRES
    51   24   94 1    
    52   25   26 2    
    53   25   27 1    
    54   27   28 1    
    55   27   29 1    
    56   27   95 1    
    57   28   96 1    
    58   28   97 1    
    59   28   98 1    
    60   29   30 am   BACKBONE|DICT|INTERRES
    61   29   99 1    
    62   30   31 2    
    63   30   32 1    
    64   32   33 1    
    65   32   34 1    
    66   32  100 1    
    67   33  101 1    
    68   33  102 1    
    69   33  103 1    
    70   34   35 am   BACKBONE|DICT|INTERRES
    71   34  104 1    
    72   35   36 2    
    73   37   38 2    
    74   37   39 am   BACKBONE|DICT|INTERRES
    75   39   40 1    
    76   39  105 1    
    77   40   41 1    
    78   40   42 1    
    79   40  106 1    
    80   41  107 1    
    81   41  108 1    
    82   41  109 1    
    83   42   43 2    
    84   42   44 am   BACKBONE|DICT|INTERRES
    85   44   45 1    
    86   44  110 1    
    87   45   46 1    
    88   45   47 1    
    89   45  111 1    
    90   46  112 1    
    91   46  113 1    
    92   46  114 1    
    93   47   48 2    
    94   47   49 am   BACKBONE|DICT|INTERRES
    95   49   50 1    
    96   49  115 1    
    97   50   51 1    
    98   50   52 1    
    99   50  116 1    
   100   51  117 1    
   101   51  118 1    
   102   51  119 1    
   103   52   53 2    
   104   52   54 am   BACKBONE|DICT|INTERRES
   105   54   55 1    
   106   54  120 1    
   107   55   56 1    
   108   55   57 1    
   109   55  121 1    
   110   56  122 1    
   111   56  123 1    
   112   56  124 1    
   113   57   58 2    
   114   57   59 am   BACKBONE|DICT|INTERRES
   115   59   60 1    
   116   59  125 1    
   117   60   61 1    
   118   60   62 1    
   119   60  126 1    
   120   61  127 1    
   121   61  128 1    
   122   61  129 1    
   123   62   63 2    
   124   62   64 am   BACKBONE|DICT|INTERRES
   125   64   65 1    
   126   64  130 1    
   127   65   66 1    
   128   65   69 1    
   129   65  131 1    
   130   66   67 am   BACKBONE|DICT|INTERRES
   131   66   68 2    
   132   67  132 1    
   133   67  133 1    
   134   69   70 1    
   135   69  134 1    
   136   69  135 1    
   137   70   71 1    
   138   71  136 1    
   139   71  137 1    
@<TRIPOS>SUBSTRUCTURE
     1 UNK         1 GROUP             0       ****    0 ROOT    
