@<TRIPOS>MOLECULE
3R137
137   139    1
SMALL
USER_CHARGES


@<TRIPOS>ATOM
      1 CA         26.7115   -7.0023   -2.5727 C.3       0 UNK        -0.2020 
      2 C          26.3577   -6.7042   -1.1160 C.2       0 UNK         0.4855 
      3 O          26.0082   -7.6378   -0.3968 O.2       0 UNK        -0.5197 
      4 N          26.4101   -5.4596   -0.6129 N.am      1 UNK        -0.4892 
      5 CA         26.7907   -4.1884   -1.2510 C.3       1 UNK         0.0835 
      6 C6         28.3184   -4.0363   -1.4910 C.3       12 UNK        -0.0855 
      7 S7         29.2603   -4.0531    0.0709 S.3       12 UNK        -0.2931 
      8 C8         30.9791   -4.1124   -0.5417 C.3       12 UNK         0.0378 
      9 C9         31.3049   -2.9939   -1.5268 C.ar      12 UNK        -0.0802 
     10 C10        31.8677   -3.2993   -2.7698 C.ar      12 UNK        -0.0944 
     11 C11        32.1553   -2.2860   -3.6887 C.ar      12 UNK        -0.0787 
     12 C12        31.8644   -0.9570   -3.3643 C.ar      12 UNK        -0.0862 
     13 C13        31.3101   -0.6372   -2.1215 C.ar      12 UNK        -0.0733 
     14 C14        31.0472   -1.6576   -1.2025 C.ar      12 UNK        -0.0832 
     15 C15        30.9869    0.8057   -1.7652 C.3       12 UNK         0.0240 
     16 S16        29.1931    1.0968   -1.8508 S.3       12 UNK        -0.2522 
     17 C17        29.0733    2.4587   -3.0607 C.3       12 UNK        -0.0967 
     18 CA         29.2216    2.0175   -4.5414 C.3       5 UNK         0.0660 
     19 N          28.4727    0.7919   -4.8335 N.am      5 UNK        -0.4015 
     20 C          28.3240    0.1871   -6.0198 C.2       4 UNK         0.4946 
     21 O          28.9015    0.5322   -7.0536 O.2       4 UNK        -0.5353 
     22 CA         27.2967   -0.9556   -6.0821 C.3       4 UNK         0.0277 
     23 CB         28.0165   -2.3105   -6.0310 C.3       4 UNK        -0.1981 
     24 N          26.2490   -0.9108   -5.0478 N.am      4 UNK        -0.4209 
     25 C          25.4027    0.1126   -4.8258 C.2       3 UNK         0.4942 
     26 O          25.4926    1.1956   -5.4092 O.2       3 UNK        -0.5208 
     27 CA         24.3034   -0.0566   -3.7551 C.3       3 UNK         0.0250 
     28 CB         22.9900    0.6446   -4.1634 C.3       3 UNK        -0.1990 
     29 N          24.0552   -1.4445   -3.3435 N.am      3 UNK        -0.4232 
     30 C          23.6094   -2.4623   -4.0974 C.2       2 UNK         0.4993 
     31 O          23.2549   -2.3430   -5.2711 O.2       2 UNK        -0.5286 
     32 CA         23.5924   -3.8555   -3.4265 C.3       2 UNK         0.0209 
     33 CB         23.6928   -5.0008   -4.4572 C.3       2 UNK        -0.1931 
     34 N          24.6096   -4.0390   -2.3741 N.am      2 UNK        -0.4546 
     35 C          25.9360   -3.8614   -2.4941 C.2       1 UNK         0.5154 
     36 O          26.4753   -3.4588   -3.5244 O.2       1 UNK        -0.5181 
     37 C          28.8379    3.1898   -5.4714 C.2       5 UNK         0.5014 
     38 O          29.7101    3.9788   -5.8350 O.2       5 UNK        -0.5248 
     39 N          27.5527    3.2654   -5.8463 N.am      6 UNK        -0.4434 
     40 CA         27.0103    4.2396   -6.7897 C.3       6 UNK         0.0363 
     41 CB         25.8847    5.0372   -6.1104 C.3       6 UNK        -0.1936 
     42 C          26.4903    3.5410   -8.0523 C.2       6 UNK         0.5081 
     43 O          26.8310    3.9648   -9.1560 O.2       6 UNK        -0.5248 
     44 N          25.6940    2.4751   -7.8801 N.am      7 UNK        -0.4718 
     45 CA         24.9661    1.7806   -8.9493 C.3       7 UNK         0.0273 
     46 CB         23.9920    0.7672   -8.3262 C.3       7 UNK        -0.1935 
     47 C          25.8600    1.0906   -9.9922 C.2       7 UNK         0.5018 
     48 O          25.4381    0.9516  -11.1408 O.2       7 UNK        -0.5186 
     49 N          27.0693    0.6889   -9.5838 N.am      8 UNK        -0.4240 
     50 CA         28.0984    0.1164  -10.4518 C.3       8 UNK         0.0235 
     51 CB         28.3842   -1.3286  -10.0033 C.3       8 UNK        -0.2000 
     52 C          29.3725    0.9783  -10.4470 C.2       8 UNK         0.4941 
     53 O          30.4180    0.4895  -10.8741 O.2       8 UNK        -0.5273 
     54 N          29.2824    2.2244   -9.9492 N.am      9 UNK        -0.4262 
     55 CA         30.3729    3.1968   -9.7931 C.3       9 UNK         0.0264 
     56 CB         30.7748    3.7694  -11.1687 C.3       9 UNK        -0.1955 
     57 C          31.5757    2.6420   -8.9994 C.2       9 UNK         0.5031 
     58 O          32.7229    2.8431   -9.4031 O.2       9 UNK        -0.5390 
     59 N          31.2748    1.9367   -7.8994 N.am      10 UNK        -0.4204 
     60 CA         32.1918    1.1786   -7.0450 C.3       10 UNK         0.0237 
     61 CB         33.2822    2.0699   -6.4128 C.3       10 UNK        -0.1985 
     62 C          32.7308   -0.0682   -7.7619 C.2       10 UNK         0.4970 
     63 O          33.9440   -0.2732   -7.8316 O.2       10 UNK        -0.4914 
     64 N          31.7895   -0.8964   -8.2326 N.am      11 UNK        -0.4285 
     65 CA         32.0168   -2.2384   -8.7956 C.3       11 UNK         0.1007 
     66 C          32.8210   -2.2423  -10.1307 C.2       11 UNK         0.5703 
     67 N          32.6354   -1.2575  -10.9996 N.am      11 UNK        -0.7361 
     68 O          33.6073   -3.1488  -10.3981 O.2       11 UNK        -0.4986 
     69 C69        32.5696   -3.2492   -7.7457 C.3       12 UNK        -0.0947 
     70 S70        31.5910   -3.2924   -6.2040 S.3       12 UNK        -0.2240 
     71 C71        32.8013   -2.6273   -5.0214 C.3       12 UNK         0.0194 
     72 H72        25.7998   -7.1154   -3.1582 H         1 UNK         0.0906 
     73 H73        27.3221   -6.2396   -3.0468 H         1 UNK         0.0906 
     74 H74        27.2643   -7.9394   -2.6343 H         1 UNK         0.0906 
     75 H75        26.1654   -5.3596    0.3629 H         1 UNK         0.3140 
     76 H76        26.5163   -3.4133   -0.5330 H         1 UNK         0.1085 
     77 H77        28.7096   -4.8109   -2.1494 H         1 UNK         0.0836 
     78 H78        28.5301   -3.0860   -1.9857 H         1 UNK         0.0836 
     79 H79        31.1499   -5.0897   -0.9961 H         1 UNK         0.0731 
     80 H80        31.6598   -4.0447    0.3079 H         1 UNK         0.0731 
     81 H81        32.0829   -4.3273   -3.0284 H         1 UNK         0.1312 
     82 H82        32.0781   -0.1711   -4.0743 H         1 UNK         0.1406 
     83 H83        30.6130   -1.4134   -0.2422 H         1 UNK         0.1631 
     84 H84        31.5198    1.4928   -2.4240 H         1 UNK         0.0717 
     85 H85        31.3346    1.0213   -0.7538 H         1 UNK         0.0717 
     86 H86        28.1006    2.9284   -2.8982 H         1 UNK         0.0934 
     87 H87        29.8140    3.2220   -2.8133 H         1 UNK         0.0934 
     88 H88        30.2731    1.7934   -4.7161 H         1 UNK         0.0739 
     89 H89        27.9748    0.4009   -4.0472 H         1 UNK         0.3093 
     90 H90        26.7926   -0.8782   -7.0466 H         1 UNK         0.0818 
     91 H91        28.7616   -2.3908   -6.8227 H         1 UNK         0.0819 
     92 H92        28.5348   -2.4570   -5.0820 H         1 UNK         0.0819 
     93 H93        27.3183   -3.1373   -6.1625 H         1 UNK         0.0819 
     94 H94        26.1341   -1.7632   -4.5060 H         1 UNK         0.3041 
     95 H95        24.6814    0.4531   -2.8678 H         1 UNK         0.0784 
     96 H96        22.2247    0.5343   -3.3952 H         1 UNK         0.0793 
     97 H97        23.1450    1.7142   -4.3112 H         1 UNK         0.0793 
     98 H98        22.5904    0.2457   -5.0962 H         1 UNK         0.0793 
     99 H99        24.3127   -1.6628   -2.3912 H         1 UNK         0.3024 
    100 H100       22.6196   -3.9352   -2.9381 H         1 UNK         0.1171 
    101 H101       23.6338   -5.9756   -3.9734 H         1 UNK         0.0786 
    102 H102       22.8782   -4.9538   -5.1811 H         1 UNK         0.0786 
    103 H103       24.6283   -4.9587   -5.0163 H         1 UNK         0.0786 
    104 H104       24.2614   -4.3677   -1.4830 H         1 UNK         0.2977 
    105 H105       26.9104    2.5456   -5.5260 H         1 UNK         0.3127 
    106 H106       27.7832    4.9457   -7.1015 H         1 UNK         0.0770 
    107 H107       25.0803    4.3891   -5.7596 H         1 UNK         0.0814 
    108 H108       25.4464    5.7598   -6.8002 H         1 UNK         0.0814 
    109 H109       26.2606    5.5953   -5.2529 H         1 UNK         0.0814 
    110 H110       25.5061    2.1451   -6.9348 H         1 UNK         0.2983 
    111 H111       24.3786    2.5325   -9.4808 H         1 UNK         0.0947 
    112 H112       23.3805    0.2907   -9.0936 H         1 UNK         0.0806 
    113 H113       23.3115    1.2484   -7.6234 H         1 UNK         0.0806 
    114 H114       24.5176   -0.0252   -7.7926 H         1 UNK         0.0806 
    115 H115       27.3409    0.8498   -8.6216 H         1 UNK         0.3000 
    116 H116       27.7560    0.0876  -11.4881 H         1 UNK         0.0850 
    117 H117       29.1007   -1.8129  -10.6679 H         1 UNK         0.0810 
    118 H118       27.4769   -1.9326  -10.0143 H         1 UNK         0.0810 
    119 H119       28.7957   -1.3628   -8.9958 H         1 UNK         0.0810 
    120 H120       28.3672    2.5581   -9.6682 H         1 UNK         0.3040 
    121 H121       29.9693    4.0172   -9.1971 H         1 UNK         0.0766 
    122 H122       31.2175    3.0054  -11.8089 H         1 UNK         0.0812 
    123 H123       31.5077    4.5699  -11.0614 H         1 UNK         0.0812 
    124 H124       29.9142    4.1875  -11.6906 H         1 UNK         0.0812 
    125 H125       30.2913    1.7793   -7.6974 H         1 UNK         0.3205 
    126 H126       31.5853    0.7924   -6.2276 H         1 UNK         0.0754 
    127 H127       33.8604    1.5098   -5.6770 H         1 UNK         0.0769 
    128 H128       32.8434    2.9256   -5.8994 H         1 UNK         0.0769 
    129 H129       33.9863    2.4468   -7.1547 H         1 UNK         0.0769 
    130 H130       30.8232   -0.6161   -8.1458 H         1 UNK         0.2981 
    131 H131       31.0281   -2.6005   -9.0772 H         1 UNK         0.0541 
    132 H132       31.9271   -0.5441  -10.8353 H         1 UNK         0.3459 
    133 H133       33.1522   -1.2585  -11.8635 H         1 UNK         0.3459 
    134 H134       33.6128   -3.0276   -7.5144 H         1 UNK         0.0612 
    135 H135       32.5639   -4.2589   -8.1595 H         1 UNK         0.0612 
    136 H136       33.2800   -1.7425   -5.4413 H         1 UNK         0.0624 
    137 H137       33.5940   -3.3615   -4.8707 H         1 UNK         0.0624 
@<TRIPOS>BOND
     1    1    2 1    
     2    1   72 1    
     3    1   73 1    
     4    1   74 1    
     5    2    3 2    
     6    2    4 am   BACKBONE|DICT|INTERRES
     7    4    5 1    
     8    4   75 1    
     9    5    6 1    
    10    5   35 1    
    11    5   76 1    
    12    6    7 1    
    13    6   77 1    
    14    6   78 1    
    15    7    8 1    
    16    8    9 1    
    17    8   79 1    
    18    8   80 1    
    19    9   10 ar   
    20    9   14 ar   
    21   10   11 ar   
    22   10   81 1    
    23   11   12 ar   
    24   11   71 1    
    25   12   13 ar   
    26   12   82 1    
    27   13   14 ar   
    28   13   15 1    
    29   14   83 1    
    30   15   16 1    
    31   15   84 1    
    32   15   85 1    
    33   16   17 1    
    34   17   18 1    
    35   17   86 1    
    36   17   87 1    
    37   18   19 1    
    38   18   37 1    
    39   18   88 1    
    40   19   20 am   BACKBONE|DICT|INTERRES
    41   19   89 1    
    42   20   21 2    
    43   20   22 1    
    44   22   23 1    
    45   22   24 1    
    46   22   90 1    
    47   23   91 1    
    48   23   92 1    
    49   23   93 1    
    50   24   25 am   BACKBONE|DICT|INTERRES
    51   24   94 1    
    52   25   26 2    
    53   25   27 1    
    54   27   28 1    
    55   27   29 1    
    56   27   95 1    
    57   28   96 1    
    58   28   97 1    
    59   28   98 1    
    60   29   30 am   BACKBONE|DICT|INTERRES
    61   29   99 1    
    62   30   31 2    
    63   30   32 1    
    64   32   33 1    
    65   32   34 1    
    66   32  100 1    
    67   33  101 1    
    68   33  102 1    
    69   33  103 1    
    70   34   35 am   BACKBONE|DICT|INTERRES
    71   34  104 1    
    72   35   36 2    
    73   37   38 2    
    74   37   39 am   BACKBONE|DICT|INTERRES
    75   39   40 1    
    76   39  105 1    
    77   40   41 1    
    78   40   42 1    
    79   40  106 1    
    80   41  107 1    
    81   41  108 1    
    82   41  109 1    
    83   42   43 2    
    84   42   44 am   BACKBONE|DICT|INTERRES
    85   44   45 1    
    86   44  110 1    
    87   45   46 1    
    88   45   47 1    
    89   45  111 1    
    90   46  112 1    
    91   46  113 1    
    92   46  114 1    
    93   47   48 2    
    94   47   49 am   BACKBONE|DICT|INTERRES
    95   49   50 1    
    96   49  115 1    
    97   50   51 1    
    98   50   52 1    
    99   50  116 1    
   100   51  117 1    
   101   51  118 1    
   102   51  119 1    
   103   52   53 2    
   104   52   54 am   BACKBONE|DICT|INTERRES
   105   54   55 1    
   106   54  120 1    
   107   55   56 1    
   108   55   57 1    
   109   55  121 1    
   110   56  122 1    
   111   56  123 1    
   112   56  124 1    
   113   57   58 2    
   114   57   59 am   BACKBONE|DICT|INTERRES
   115   59   60 1    
   116   59  125 1    
   117   60   61 1    
   118   60   62 1    
   119   60  126 1    
   120   61  127 1    
   121   61  128 1    
   122   61  129 1    
   123   62   63 2    
   124   62   64 am   BACKBONE|DICT|INTERRES
   125   64   65 1    
   126   64  130 1    
   127   65   66 1    
   128   65   69 1    
   129   65  131 1    
   130   66   67 am   BACKBONE|DICT|INTERRES
   131   66   68 2    
   132   67  132 1    
   133   67  133 1    
   134   69   70 1    
   135   69  134 1    
   136   69  135 1    
   137   70   71 1    
   138   71  136 1    
   139   71  137 1    
@<TRIPOS>SUBSTRUCTURE
     1 UNK         1 GROUP             0       ****    0 ROOT    
