@<TRIPOS>MOLECULE
3R137
137   139    1
SMALL
USER_CHARGES


@<TRIPOS>ATOM
      1 CA         30.5918    0.2322   -1.1405 C.3       0 UNK        -0.2020 
      2 C          29.7500   -0.8325   -1.8273 C.2       0 UNK         0.4855 
      3 O          29.4257   -0.6855   -3.0036 O.2       0 UNK        -0.5197 
      4 N          29.3914   -1.8987   -1.0981 N.am      1 UNK        -0.4892 
      5 CA         28.6190   -3.0424   -1.6073 C.3       1 UNK         0.0835 
      6 C6         28.6901   -4.2731   -0.6619 C.3       12 UNK        -0.0855 
      7 S7         30.3787   -4.7217   -0.1268 S.3       12 UNK        -0.2931 
      8 C8         30.8534   -5.9747   -1.3611 C.3       12 UNK         0.0378 
      9 C9         31.0676   -5.3482   -2.7297 C.ar      12 UNK        -0.0802 
     10 C10        32.1684   -4.5134   -2.9488 C.ar      12 UNK        -0.0944 
     11 C11        32.3470   -3.8894   -4.1854 C.ar      12 UNK        -0.0787 
     12 C12        31.4287   -4.1208   -5.2098 C.ar      12 UNK        -0.0862 
     13 C13        30.3229   -4.9479   -5.0045 C.ar      12 UNK        -0.0733 
     14 C14        30.1531   -5.5725   -3.7649 C.ar      12 UNK        -0.0832 
     15 C15        29.3019   -5.1403   -6.1165 C.3       12 UNK         0.0240 
     16 S16        27.7340   -4.2896   -5.7501 S.3       12 UNK        -0.2522 
     17 C17        28.2302   -2.5310   -5.6785 C.3       12 UNK        -0.0967 
     18 CA         27.4430   -1.6644   -6.6845 C.3       5 UNK         0.0660 
     19 N          26.0010   -1.7004   -6.4271 N.am      5 UNK        -0.4015 
     20 C          25.0658   -1.3153   -7.3039 C.2       4 UNK         0.4946 
     21 O          25.3162   -0.8702   -8.4246 O.2       4 UNK        -0.5353 
     22 CA         23.6051   -1.4172   -6.8353 C.3       4 UNK         0.0277 
     23 CB         23.1374   -2.8818   -6.8092 C.3       4 UNK        -0.1981 
     24 N          23.3841   -0.8010   -5.5237 N.am      4 UNK        -0.4209 
     25 C          23.5346    0.5075   -5.2748 C.2       3 UNK         0.4942 
     26 O          23.8796    1.3291   -6.1202 O.2       3 UNK        -0.5208 
     27 CA         23.2782    0.9937   -3.8407 C.3       3 UNK         0.0250 
     28 CB         21.7840    1.2913   -3.6364 C.3       3 UNK        -0.1990 
     29 N          23.7466    0.0965   -2.7808 N.am      3 UNK        -0.4232 
     30 C          24.9900   -0.3860   -2.6416 C.2       2 UNK         0.4993 
     31 O          25.8824   -0.2382   -3.4816 O.2       2 UNK        -0.5286 
     32 CA         25.2698   -1.1033   -1.3058 C.3       2 UNK         0.0209 
     33 CB         24.2052   -2.1731   -0.9676 C.3       2 UNK        -0.1931 
     34 N          26.6267   -1.6561   -1.2165 N.am      2 UNK        -0.4546 
     35 C          27.1399   -2.6964   -1.8904 C.2       1 UNK         0.5154 
     36 O          26.4969   -3.3940   -2.6749 O.2       1 UNK        -0.5181 
     37 C          27.9752   -0.2178   -6.7205 C.2       5 UNK         0.5014 
     38 O          28.8643    0.0759   -7.5247 O.2       5 UNK        -0.5248 
     39 N          27.3981    0.6646   -5.8898 N.am      6 UNK        -0.4434 
     40 CA         27.6656    2.1027   -5.8940 C.3       6 UNK         0.0363 
     41 CB         27.0162    2.7579   -4.6658 C.3       6 UNK        -0.1936 
     42 C          27.2021    2.7832   -7.1939 C.2       6 UNK         0.5081 
     43 O          27.9739    3.5429   -7.7771 O.2       6 UNK        -0.5248 
     44 N          25.9788    2.4773   -7.6545 N.am      7 UNK        -0.4718 
     45 CA         25.4145    2.9750   -8.9164 C.3       7 UNK         0.0273 
     46 CB         23.9240    2.6121   -9.0069 C.3       7 UNK        -0.1935 
     47 C          26.1660    2.4640  -10.1558 C.2       7 UNK         0.5018 
     48 O          26.3267    3.2165  -11.1173 O.2       7 UNK        -0.5186 
     49 N          26.6490    1.2149  -10.0963 N.am      8 UNK        -0.4240 
     50 CA         27.5429    0.6194  -11.0938 C.3       8 UNK         0.0235 
     51 CB         27.5914   -0.9024  -10.8780 C.3       8 UNK        -0.2000 
     52 C          28.9693    1.2058  -11.0747 C.2       8 UNK         0.4941 
     53 O          29.7228    0.9538  -12.0157 O.2       8 UNK        -0.5273 
     54 N          29.3183    1.9503  -10.0123 N.am      9 UNK        -0.4262 
     55 CA         30.6267    2.5433   -9.7173 C.3       9 UNK         0.0264 
     56 CB         30.9721    3.6522  -10.7338 C.3       9 UNK        -0.1955 
     57 C          31.7355    1.4846   -9.5716 C.2       9 UNK         0.5031 
     58 O          32.8649    1.7106  -10.0119 O.2       9 UNK        -0.5390 
     59 N          31.3921    0.3408   -8.9616 N.am      10 UNK        -0.4204 
     60 CA         32.3019   -0.7896   -8.7618 C.3       10 UNK         0.0237 
     61 CB         31.4789   -2.0437   -8.4382 C.3       10 UNK        -0.1985 
     62 C          33.3634   -0.5212   -7.6797 C.2       10 UNK         0.4970 
     63 O          34.4780   -1.0324   -7.7904 O.2       10 UNK        -0.4914 
     64 N          33.0071    0.2918   -6.6814 N.am      11 UNK        -0.4285 
     65 CA         33.8713    0.8126   -5.6173 C.3       11 UNK         0.1007 
     66 C          33.1902    2.0182   -4.9129 C.2       11 UNK         0.5703 
     67 N          33.8835    2.6822   -3.9981 N.am      11 UNK        -0.7361 
     68 O          32.0464    2.3720   -5.1987 O.2       11 UNK        -0.4986 
     69 C69        34.3947   -0.2760   -4.6328 C.3       12 UNK        -0.0947 
     70 S70        33.0756   -1.2637   -3.8503 S.3       12 UNK        -0.2240 
     71 C71        33.5071   -2.9369   -4.4138 C.3       12 UNK         0.0194 
     72 H72        30.0351    1.1673   -1.0787 H         1 UNK         0.0906 
     73 H73        30.8807   -0.0625   -0.1314 H         1 UNK         0.0906 
     74 H74        31.5014    0.4159   -1.7129 H         1 UNK         0.0906 
     75 H75        29.7145   -1.9861   -0.1446 H         1 UNK         0.3140 
     76 H76        29.0573   -3.3212   -2.5672 H         1 UNK         0.1085 
     77 H77        28.1099   -4.0857    0.2440 H         1 UNK         0.0836 
     78 H78        28.2265   -5.1408   -1.1357 H         1 UNK         0.0836 
     79 H79        30.0970   -6.7603   -1.3987 H         1 UNK         0.0731 
     80 H80        31.7782   -6.4556   -1.0390 H         1 UNK         0.0731 
     81 H81        32.8675   -4.3239   -2.1455 H         1 UNK         0.1312 
     82 H82        31.5657   -3.6348   -6.1623 H         1 UNK         0.1406 
     83 H83        29.2905   -6.2042   -3.6002 H         1 UNK         0.1631 
     84 H84        29.1051   -6.2056   -6.2451 H         1 UNK         0.0717 
     85 H85        29.6888   -4.7819   -7.0720 H         1 UNK         0.0717 
     86 H86        28.0655   -2.1714   -4.6628 H         1 UNK         0.0934 
     87 H87        29.3016   -2.4411   -5.8558 H         1 UNK         0.0934 
     88 H88        27.6090   -2.0837   -7.6791 H         1 UNK         0.0739 
     89 H89        25.7187   -2.0236   -5.5124 H         1 UNK         0.3093 
     90 H90        22.9916   -0.8793   -7.5616 H         1 UNK         0.0818 
     91 H91        23.2879   -3.3553   -7.7806 H         1 UNK         0.0819 
     92 H92        23.6827   -3.4721   -6.0716 H         1 UNK         0.0819 
     93 H93        22.0745   -2.9542   -6.5777 H         1 UNK         0.0819 
     94 H94        23.1060   -1.4067   -4.7654 H         1 UNK         0.3041 
     95 H95        23.8238    1.9315   -3.7208 H         1 UNK         0.0784 
     96 H96        21.4133    1.9734   -4.4032 H         1 UNK         0.0793 
     97 H97        21.1799    0.3846   -3.6875 H         1 UNK         0.0793 
     98 H98        21.6002    1.7644   -2.6715 H         1 UNK         0.0793 
     99 H99        23.0859   -0.0859   -2.0393 H         1 UNK         0.3024 
    100 H100       25.2199   -0.3318   -0.5355 H         1 UNK         0.1171 
    101 H101       24.4743   -2.7283   -0.0688 H         1 UNK         0.0786 
    102 H102       23.2304   -1.7231   -0.7785 H         1 UNK         0.0786 
    103 H103       24.0778   -2.8929   -1.7770 H         1 UNK         0.0786 
    104 H104       27.2690   -1.1395   -0.6324 H         1 UNK         0.2977 
    105 H105       26.7286    0.3264   -5.2032 H         1 UNK         0.3127 
    106 H106       28.7471    2.2358   -5.8150 H         1 UNK         0.0770 
    107 H107       25.9311    2.6589   -4.6823 H         1 UNK         0.0814 
    108 H108       27.2472    3.8230   -4.6248 H         1 UNK         0.0814 
    109 H109       27.3791    2.3091   -3.7407 H         1 UNK         0.0814 
    110 H110       25.3697    1.8836   -7.0941 H         1 UNK         0.2983 
    111 H111       25.4995    4.0639   -8.9102 H         1 UNK         0.0947 
    112 H112       23.4882    2.9712   -9.9403 H         1 UNK         0.0806 
    113 H113       23.3573    3.0624   -8.1918 H         1 UNK         0.0806 
    114 H114       23.7695    1.5329   -8.9661 H         1 UNK         0.0806 
    115 H115       26.3936    0.6329   -9.3036 H         1 UNK         0.3000 
    116 H116       27.1244    0.8127  -12.0838 H         1 UNK         0.0850 
    117 H117       28.2017   -1.3873  -11.6410 H         1 UNK         0.0810 
    118 H118       26.5960   -1.3439  -10.9304 H         1 UNK         0.0810 
    119 H119       28.0205   -1.1565   -9.9087 H         1 UNK         0.0810 
    120 H120       28.6197    2.0977   -9.2935 H         1 UNK         0.3040 
    121 H121       30.5317    3.0138   -8.7376 H         1 UNK         0.0766 
    122 H122       31.1417    3.2485  -11.7324 H         1 UNK         0.0812 
    123 H123       31.8784    4.1830  -10.4399 H         1 UNK         0.0812 
    124 H124       30.1725    4.3900  -10.8005 H         1 UNK         0.0812 
    125 H125       30.4477    0.2473   -8.5904 H         1 UNK         0.3205 
    126 H126       32.8308   -0.9682   -9.7006 H         1 UNK         0.0754 
    127 H127       32.1264   -2.9123   -8.3128 H         1 UNK         0.0769 
    128 H128       30.7782   -2.2754   -9.2406 H         1 UNK         0.0769 
    129 H129       30.9042   -1.9135   -7.5221 H         1 UNK         0.0769 
    130 H130       32.0736    0.6813   -6.6687 H         1 UNK         0.2981 
    131 H131       34.7386    1.2407   -6.1228 H         1 UNK         0.0541 
    132 H132       34.8246    2.4143   -3.7579 H         1 UNK         0.3459 
    133 H133       33.4546    3.4702   -3.5393 H         1 UNK         0.3459 
    134 H134       34.9965    0.1721   -3.8413 H         1 UNK         0.0612 
    135 H135       35.0790   -0.9417   -5.1593 H         1 UNK         0.0612 
    136 H136       34.3948   -3.2829   -3.8824 H         1 UNK         0.0624 
    137 H137       33.7653   -2.9121   -5.4739 H         1 UNK         0.0624 
@<TRIPOS>BOND
     1    1    2 1    
     2    1   72 1    
     3    1   73 1    
     4    1   74 1    
     5    2    3 2    
     6    2    4 am   BACKBONE|DICT|INTERRES
     7    4    5 1    
     8    4   75 1    
     9    5    6 1    
    10    5   35 1    
    11    5   76 1    
    12    6    7 1    
    13    6   77 1    
    14    6   78 1    
    15    7    8 1    
    16    8    9 1    
    17    8   79 1    
    18    8   80 1    
    19    9   10 ar   
    20    9   14 ar   
    21   10   11 ar   
    22   10   81 1    
    23   11   12 ar   
    24   11   71 1    
    25   12   13 ar   
    26   12   82 1    
    27   13   14 ar   
    28   13   15 1    
    29   14   83 1    
    30   15   16 1    
    31   15   84 1    
    32   15   85 1    
    33   16   17 1    
    34   17   18 1    
    35   17   86 1    
    36   17   87 1    
    37   18   19 1    
    38   18   37 1    
    39   18   88 1    
    40   19   20 am   BACKBONE|DICT|INTERRES
    41   19   89 1    
    42   20   21 2    
    43   20   22 1    
    44   22   23 1    
    45   22   24 1    
    46   22   90 1    
    47   23   91 1    
    48   23   92 1    
    49   23   93 1    
    50   24   25 am   BACKBONE|DICT|INTERRES
    51   24   94 1    
    52   25   26 2    
    53   25   27 1    
    54   27   28 1    
    55   27   29 1    
    56   27   95 1    
    57   28   96 1    
    58   28   97 1    
    59   28   98 1    
    60   29   30 am   BACKBONE|DICT|INTERRES
    61   29   99 1    
    62   30   31 2    
    63   30   32 1    
    64   32   33 1    
    65   32   34 1    
    66   32  100 1    
    67   33  101 1    
    68   33  102 1    
    69   33  103 1    
    70   34   35 am   BACKBONE|DICT|INTERRES
    71   34  104 1    
    72   35   36 2    
    73   37   38 2    
    74   37   39 am   BACKBONE|DICT|INTERRES
    75   39   40 1    
    76   39  105 1    
    77   40   41 1    
    78   40   42 1    
    79   40  106 1    
    80   41  107 1    
    81   41  108 1    
    82   41  109 1    
    83   42   43 2    
    84   42   44 am   BACKBONE|DICT|INTERRES
    85   44   45 1    
    86   44  110 1    
    87   45   46 1    
    88   45   47 1    
    89   45  111 1    
    90   46  112 1    
    91   46  113 1    
    92   46  114 1    
    93   47   48 2    
    94   47   49 am   BACKBONE|DICT|INTERRES
    95   49   50 1    
    96   49  115 1    
    97   50   51 1    
    98   50   52 1    
    99   50  116 1    
   100   51  117 1    
   101   51  118 1    
   102   51  119 1    
   103   52   53 2    
   104   52   54 am   BACKBONE|DICT|INTERRES
   105   54   55 1    
   106   54  120 1    
   107   55   56 1    
   108   55   57 1    
   109   55  121 1    
   110   56  122 1    
   111   56  123 1    
   112   56  124 1    
   113   57   58 2    
   114   57   59 am   BACKBONE|DICT|INTERRES
   115   59   60 1    
   116   59  125 1    
   117   60   61 1    
   118   60   62 1    
   119   60  126 1    
   120   61  127 1    
   121   61  128 1    
   122   61  129 1    
   123   62   63 2    
   124   62   64 am   BACKBONE|DICT|INTERRES
   125   64   65 1    
   126   64  130 1    
   127   65   66 1    
   128   65   69 1    
   129   65  131 1    
   130   66   67 am   BACKBONE|DICT|INTERRES
   131   66   68 2    
   132   67  132 1    
   133   67  133 1    
   134   69   70 1    
   135   69  134 1    
   136   69  135 1    
   137   70   71 1    
   138   71  136 1    
   139   71  137 1    
@<TRIPOS>SUBSTRUCTURE
     1 UNK         1 GROUP             0       ****    0 ROOT    
