@<TRIPOS>MOLECULE
3R137
137   139    1
SMALL
USER_CHARGES


@<TRIPOS>ATOM
      1 CA         26.4085   -5.9739   -4.2724 C.3       0 UNK        -0.2020 
      2 C          25.1622   -5.7128   -3.4312 C.2       0 UNK         0.4855 
      3 O          24.0841   -6.1577   -3.8200 O.2       0 UNK        -0.5197 
      4 N          25.2258   -5.0265   -2.2795 N.am      1 UNK        -0.4892 
      5 CA         26.3639   -4.3657   -1.6226 C.3       1 UNK         0.0835 
      6 C6         27.5614   -5.3156   -1.3382 C.3       12 UNK        -0.0855 
      7 S7         28.6573   -4.7232    0.0018 S.3       12 UNK        -0.2931 
      8 C8         30.3242   -5.0585   -0.6615 C.3       12 UNK         0.0378 
      9 C9         30.6813   -4.1917   -1.8642 C.ar      12 UNK        -0.0802 
     10 C10        31.1602   -2.8862   -1.6870 C.ar      12 UNK        -0.0944 
     11 C11        31.5271   -2.1082   -2.7925 C.ar      12 UNK        -0.0787 
     12 C12        31.4486   -2.6647   -4.0695 C.ar      12 UNK        -0.0862 
     13 C13        30.8887   -3.9256   -4.2662 C.ar      12 UNK        -0.0733 
     14 C14        30.5410   -4.7020   -3.1599 C.ar      12 UNK        -0.0832 
     15 C15        30.5791   -4.3937   -5.6791 C.3       12 UNK         0.0240 
     16 S16        28.9091   -3.8495   -6.1840 S.3       12 UNK        -0.2522 
     17 C17        29.0375   -2.0392   -5.9857 C.3       12 UNK        -0.0967 
     18 CA         27.9350   -1.2699   -6.7368 C.3       5 UNK         0.0660 
     19 N          26.6315   -1.3878   -6.0811 N.am      5 UNK        -0.4015 
     20 C          25.4745   -0.9969   -6.6325 C.2       4 UNK         0.4946 
     21 O          25.3922   -0.4376   -7.7269 O.2       4 UNK        -0.5353 
     22 CA         24.1997   -1.2669   -5.8230 C.3       4 UNK         0.0277 
     23 CB         23.8327   -2.7599   -5.8627 C.3       4 UNK        -0.1981 
     24 N          24.3673   -0.8345   -4.4363 N.am      4 UNK        -0.4209 
     25 C          24.1162    0.4087   -4.0015 C.2       3 UNK         0.4942 
     26 O          23.6263    1.2944   -4.7031 O.2       3 UNK        -0.5208 
     27 CA         24.4844    0.7330   -2.5403 C.3       3 UNK         0.0250 
     28 CB         23.2818    0.4857   -1.6153 C.3       3 UNK        -0.1990 
     29 N          25.6441   -0.0105   -2.0371 N.am      3 UNK        -0.4232 
     30 C          26.8783    0.0610   -2.5561 C.2       2 UNK         0.4993 
     31 O          27.1751    0.7765   -3.5070 O.2       2 UNK        -0.5286 
     32 CA         27.9490   -0.8653   -1.9630 C.3       2 UNK         0.0209 
     33 CB         28.6464   -0.1830   -0.7760 C.3       2 UNK        -0.1931 
     34 N          27.4442   -2.1764   -1.5482 N.am      2 UNK        -0.4546 
     35 C          26.7625   -3.0407   -2.3125 C.2       1 UNK         0.5154 
     36 O          26.4218   -2.7982   -3.4753 O.2       1 UNK        -0.5181 
     37 C          28.3695    0.1865   -6.9923 C.2       5 UNK         0.5014 
     38 O          28.9804    0.4341   -8.0303 O.2       5 UNK        -0.5248 
     39 N          28.0609    1.1323   -6.0937 N.am      6 UNK        -0.4434 
     40 CA         28.3893    2.5521   -6.2692 C.3       6 UNK         0.0363 
     41 CB         28.1426    3.3246   -4.9651 C.3       6 UNK        -0.1936 
     42 C          27.6284    3.2054   -7.4340 C.2       6 UNK         0.5081 
     43 O          28.1934    4.0639   -8.1101 O.2       6 UNK        -0.5248 
     44 N          26.3898    2.7574   -7.6882 N.am      7 UNK        -0.4718 
     45 CA         25.5841    3.1774   -8.8400 C.3       7 UNK         0.0273 
     46 CB         24.1243    2.7421   -8.6364 C.3       7 UNK        -0.1935 
     47 C          26.1382    2.6397  -10.1720 C.2       7 UNK         0.5018 
     48 O          26.0216    3.3164  -11.1938 O.2       7 UNK        -0.5186 
     49 N          26.7624    1.4546  -10.1278 N.am      8 UNK        -0.4240 
     50 CA         27.4919    0.8443  -11.2425 C.3       8 UNK         0.0235 
     51 CB         27.4969   -0.6822  -11.0468 C.3       8 UNK        -0.2000 
     52 C          28.9346    1.3728  -11.3873 C.2       8 UNK         0.4941 
     53 O          29.5969    1.0214  -12.3643 O.2       8 UNK        -0.5273 
     54 N          29.4026    2.1719  -10.4142 N.am      9 UNK        -0.4262 
     55 CA         30.7707    2.6763  -10.2359 C.3       9 UNK         0.0264 
     56 CB         31.1576    3.6464  -11.3724 C.3       9 UNK        -0.1955 
     57 C          31.8060    1.5514  -10.0187 C.2       9 UNK         0.5031 
     58 O          32.9511    1.6762  -10.4575 O.2       9 UNK        -0.5390 
     59 N          31.3840    0.4717   -9.3471 N.am      10 UNK        -0.4204 
     60 CA         32.1867   -0.7203   -9.0717 C.3       10 UNK         0.0237 
     61 CB         31.2945   -1.9677   -9.1970 C.3       10 UNK        -0.1985 
     62 C          32.9054   -0.6734   -7.7109 C.2       10 UNK         0.4970 
     63 O          33.8221   -1.4711   -7.5097 O.2       10 UNK        -0.4914 
     64 N          32.5169    0.2420   -6.8086 N.am      11 UNK        -0.4285 
     65 CA         33.2879    0.5507   -5.5905 C.3       11 UNK         0.1007 
     66 C          34.6153    1.2828   -5.9312 C.2       11 UNK         0.5703 
     67 N          35.6960    0.9743   -5.2272 N.am      11 UNK        -0.7361 
     68 O          34.6612    2.1558   -6.7961 O.2       11 UNK        -0.4986 
     69 C69        32.4777    1.3715   -4.5496 C.3       12 UNK        -0.0947 
     70 S70        31.0952    0.4509   -3.8028 S.3       12 UNK        -0.2240 
     71 C71        31.9701   -0.6573   -2.6321 C.3       12 UNK         0.0194 
     72 H72        26.1310   -6.1433   -5.3125 H         1 UNK         0.0906 
     73 H73        26.9266   -6.8633   -3.9159 H         1 UNK         0.0906 
     74 H74        27.1019   -5.1375   -4.2630 H         1 UNK         0.0906 
     75 H75        24.3499   -4.8877   -1.7946 H         1 UNK         0.3140 
     76 H76        25.9565   -4.0743   -0.6525 H         1 UNK         0.1085 
     77 H77        27.1883   -6.2935   -1.0296 H         1 UNK         0.0836 
     78 H78        28.1402   -5.4951   -2.2394 H         1 UNK         0.0836 
     79 H79        31.0539   -4.8884    0.1316 H         1 UNK         0.0731 
     80 H80        30.4019   -6.1167   -0.9165 H         1 UNK         0.0731 
     81 H81        31.2391   -2.4775   -0.6891 H         1 UNK         0.1312 
     82 H82        31.7402   -2.0737   -4.9255 H         1 UNK         0.1406 
     83 H83        30.1392   -5.6940   -3.3133 H         1 UNK         0.1631 
     84 H84        30.6358   -5.4814   -5.7390 H         1 UNK         0.0717 
     85 H85        31.3181   -4.0054   -6.3820 H         1 UNK         0.0717 
     86 H86        29.0052   -1.7939   -4.9239 H         1 UNK         0.0934 
     87 H87        30.0238   -1.7383   -6.3396 H         1 UNK         0.0934 
     88 H88        27.8297   -1.7240   -7.7247 H         1 UNK         0.0739 
     89 H89        26.6145   -1.8646   -5.1838 H         1 UNK         0.3093 
     90 H90        23.3821   -0.7087   -6.2849 H         1 UNK         0.0818 
     91 H91        22.9095   -2.9554   -5.3171 H         1 UNK         0.0819 
     92 H92        23.6795   -3.0950   -6.8894 H         1 UNK         0.0819 
     93 H93        24.6135   -3.3862   -5.4302 H         1 UNK         0.0819 
     94 H94        24.8273   -1.4873   -3.8122 H         1 UNK         0.3041 
     95 H95        24.7355    1.7951   -2.4990 H         1 UNK         0.0784 
     96 H96        22.4094    1.0482   -1.9515 H         1 UNK         0.0793 
     97 H97        23.0003   -0.5679   -1.5908 H         1 UNK         0.0793 
     98 H98        23.4939    0.8020   -0.5938 H         1 UNK         0.0793 
     99 H99        25.4887   -0.6314   -1.2566 H         1 UNK         0.3024 
    100 H100       28.6936   -1.0412   -2.7403 H         1 UNK         0.1171 
    101 H101       29.0795    0.7719   -1.0782 H         1 UNK         0.0786 
    102 H102       29.4592   -0.7942   -0.3855 H         1 UNK         0.0786 
    103 H103       27.9532    0.0153    0.0423 H         1 UNK         0.0786 
    104 H104       27.7136   -2.4843   -0.6232 H         1 UNK         0.2977 
    105 H105       27.6136    0.8784   -5.2115 H         1 UNK         0.3127 
    106 H106       29.4553    2.6185   -6.4975 H         1 UNK         0.0770 
    107 H107       27.0974    3.2730   -4.6574 H         1 UNK         0.0814 
    108 H108       28.3994    4.3786   -5.0793 H         1 UNK         0.0814 
    109 H109       28.7524    2.9297   -4.1521 H         1 UNK         0.0814 
    110 H110       26.0078    2.0267   -7.1030 H         1 UNK         0.2983 
    111 H111       25.6093    4.2684   -8.8908 H         1 UNK         0.0947 
    112 H112       23.4959    3.0963   -9.4546 H         1 UNK         0.0806 
    113 H113       23.7130    3.1489   -7.7122 H         1 UNK         0.0806 
    114 H114       24.0247    1.6571   -8.5976 H         1 UNK         0.0806 
    115 H115       26.7852    0.9592   -9.2453 H         1 UNK         0.3000 
    116 H116       26.9672    1.0678  -12.1738 H         1 UNK         0.0850 
    117 H117       27.9635   -1.1834  -11.8959 H         1 UNK         0.0810 
    118 H118       26.4841   -1.0752  -10.9555 H         1 UNK         0.0810 
    119 H119       28.0513   -0.9740  -10.1546 H         1 UNK         0.0810 
    120 H120       28.7698    2.3862   -9.6545 H         1 UNK         0.3040 
    121 H121       30.7569    3.2504   -9.3082 H         1 UNK         0.0766 
    122 H122       31.2588    3.1319  -12.3283 H         1 UNK         0.0812 
    123 H123       30.4136    4.4340  -11.4913 H         1 UNK         0.0812 
    124 H124       32.1116    4.1321  -11.1636 H         1 UNK         0.0812 
    125 H125       30.4279    0.4672   -8.9864 H         1 UNK         0.3205 
    126 H126       32.9690   -0.8061   -9.8289 H         1 UNK         0.0754 
    127 H127       31.8378   -2.8744   -8.9272 H         1 UNK         0.0769 
    128 H128       30.9462   -2.0943  -10.2223 H         1 UNK         0.0769 
    129 H129       30.4142   -1.9098   -8.5605 H         1 UNK         0.0769 
    130 H130       31.7751    0.8811   -7.0477 H         1 UNK         0.2981 
    131 H131       33.5552   -0.4007   -5.1274 H         1 UNK         0.0541 
    132 H132       35.6694    0.2676   -4.5088 H         1 UNK         0.3459 
    133 H133       36.5609    1.4527   -5.4256 H         1 UNK         0.3459 
    134 H134       32.0755    2.2759   -5.0094 H         1 UNK         0.0612 
    135 H135       33.1200    1.7099   -3.7340 H         1 UNK         0.0612 
    136 H136       33.0486   -0.6022   -2.7815 H         1 UNK         0.0624 
    137 H137       31.7788   -0.3058   -1.6174 H         1 UNK         0.0624 
@<TRIPOS>BOND
     1    1    2 1    
     2    1   72 1    
     3    1   73 1    
     4    1   74 1    
     5    2    3 2    
     6    2    4 am   BACKBONE|DICT|INTERRES
     7    4    5 1    
     8    4   75 1    
     9    5    6 1    
    10    5   35 1    
    11    5   76 1    
    12    6    7 1    
    13    6   77 1    
    14    6   78 1    
    15    7    8 1    
    16    8    9 1    
    17    8   79 1    
    18    8   80 1    
    19    9   10 ar   
    20    9   14 ar   
    21   10   11 ar   
    22   10   81 1    
    23   11   12 ar   
    24   11   71 1    
    25   12   13 ar   
    26   12   82 1    
    27   13   14 ar   
    28   13   15 1    
    29   14   83 1    
    30   15   16 1    
    31   15   84 1    
    32   15   85 1    
    33   16   17 1    
    34   17   18 1    
    35   17   86 1    
    36   17   87 1    
    37   18   19 1    
    38   18   37 1    
    39   18   88 1    
    40   19   20 am   BACKBONE|DICT|INTERRES
    41   19   89 1    
    42   20   21 2    
    43   20   22 1    
    44   22   23 1    
    45   22   24 1    
    46   22   90 1    
    47   23   91 1    
    48   23   92 1    
    49   23   93 1    
    50   24   25 am   BACKBONE|DICT|INTERRES
    51   24   94 1    
    52   25   26 2    
    53   25   27 1    
    54   27   28 1    
    55   27   29 1    
    56   27   95 1    
    57   28   96 1    
    58   28   97 1    
    59   28   98 1    
    60   29   30 am   BACKBONE|DICT|INTERRES
    61   29   99 1    
    62   30   31 2    
    63   30   32 1    
    64   32   33 1    
    65   32   34 1    
    66   32  100 1    
    67   33  101 1    
    68   33  102 1    
    69   33  103 1    
    70   34   35 am   BACKBONE|DICT|INTERRES
    71   34  104 1    
    72   35   36 2    
    73   37   38 2    
    74   37   39 am   BACKBONE|DICT|INTERRES
    75   39   40 1    
    76   39  105 1    
    77   40   41 1    
    78   40   42 1    
    79   40  106 1    
    80   41  107 1    
    81   41  108 1    
    82   41  109 1    
    83   42   43 2    
    84   42   44 am   BACKBONE|DICT|INTERRES
    85   44   45 1    
    86   44  110 1    
    87   45   46 1    
    88   45   47 1    
    89   45  111 1    
    90   46  112 1    
    91   46  113 1    
    92   46  114 1    
    93   47   48 2    
    94   47   49 am   BACKBONE|DICT|INTERRES
    95   49   50 1    
    96   49  115 1    
    97   50   51 1    
    98   50   52 1    
    99   50  116 1    
   100   51  117 1    
   101   51  118 1    
   102   51  119 1    
   103   52   53 2    
   104   52   54 am   BACKBONE|DICT|INTERRES
   105   54   55 1    
   106   54  120 1    
   107   55   56 1    
   108   55   57 1    
   109   55  121 1    
   110   56  122 1    
   111   56  123 1    
   112   56  124 1    
   113   57   58 2    
   114   57   59 am   BACKBONE|DICT|INTERRES
   115   59   60 1    
   116   59  125 1    
   117   60   61 1    
   118   60   62 1    
   119   60  126 1    
   120   61  127 1    
   121   61  128 1    
   122   61  129 1    
   123   62   63 2    
   124   62   64 am   BACKBONE|DICT|INTERRES
   125   64   65 1    
   126   64  130 1    
   127   65   66 1    
   128   65   69 1    
   129   65  131 1    
   130   66   67 am   BACKBONE|DICT|INTERRES
   131   66   68 2    
   132   67  132 1    
   133   67  133 1    
   134   69   70 1    
   135   69  134 1    
   136   69  135 1    
   137   70   71 1    
   138   71  136 1    
   139   71  137 1    
@<TRIPOS>SUBSTRUCTURE
     1 UNK         1 GROUP             0       ****    0 ROOT    
