@<TRIPOS>MOLECULE
3R137
137   139    1
SMALL
USER_CHARGES


@<TRIPOS>ATOM
      1 CA         26.8078    0.1639    2.4242 C.3       0 UNK        -0.2020 
      2 C          27.6890   -0.4400    1.3406 C.2       0 UNK         0.4855 
      3 O          28.5305    0.2616    0.7814 O.2       0 UNK        -0.5197 
      4 N          27.4942   -1.7294    1.0468 N.am      1 UNK        -0.4892 
      5 CA         28.1756   -2.4896   -0.0035 C.3       1 UNK         0.0835 
      6 C6         29.3035   -3.3962    0.5596 C.3       12 UNK        -0.0855 
      7 S7         30.7308   -2.4372    1.1706 S.3       12 UNK        -0.2931 
      8 C8         31.9337   -2.6300   -0.1863 C.3       12 UNK         0.0378 
      9 C9         31.3914   -2.1511   -1.5276 C.ar      12 UNK        -0.0802 
     10 C10        31.1789   -3.0654   -2.5650 C.ar      12 UNK        -0.0944 
     11 C11        30.6906   -2.6355   -3.8021 C.ar      12 UNK        -0.0787 
     12 C12        30.4134   -1.2811   -3.9966 C.ar      12 UNK        -0.0862 
     13 C13        30.6189   -0.3570   -2.9694 C.ar      12 UNK        -0.0733 
     14 C14        31.1123   -0.7958   -1.7369 C.ar      12 UNK        -0.0832 
     15 C15        30.3161    1.1155   -3.2057 C.3       12 UNK         0.0240 
     16 S16        28.6562    1.6007   -2.6249 S.3       12 UNK        -0.2522 
     17 C17        27.5417    0.4385   -3.4879 C.3       12 UNK        -0.0967 
     18 CA         27.4473    0.6588   -5.0199 C.3       5 UNK         0.0660 
     19 N          27.0289   -0.5643   -5.7177 N.am      5 UNK        -0.4015 
     20 C          27.0163   -0.7225   -7.0529 C.2       4 UNK         0.4946 
     21 O          27.4102    0.1402   -7.8358 O.2       4 UNK        -0.5353 
     22 CA         26.4185   -2.0179   -7.6366 C.3       4 UNK         0.0277 
     23 CB         27.5329   -2.9543   -8.1300 C.3       4 UNK        -0.1981 
     24 N          25.5354   -2.7465   -6.7217 N.am      4 UNK        -0.4209 
     25 C          24.3884   -2.2729   -6.2111 C.2       3 UNK         0.4942 
     26 O          23.9137   -1.1749   -6.5025 O.2       3 UNK        -0.5208 
     27 CA         23.6935   -3.1364   -5.1394 C.3       3 UNK         0.0250 
     28 CB         22.6460   -4.0549   -5.7885 C.3       3 UNK        -0.1990 
     29 N          24.6073   -3.9419   -4.3131 N.am      3 UNK        -0.4232 
     30 C          25.6456   -3.4576   -3.6158 C.2       2 UNK         0.4993 
     31 O          25.9756   -2.2697   -3.6302 O.2       2 UNK        -0.5286 
     32 CA         26.4938   -4.4752   -2.8356 C.3       2 UNK         0.0209 
     33 CB         27.2886   -5.3673   -3.8042 C.3       2 UNK        -0.1931 
     34 N          27.4325   -3.7849   -1.9455 N.am      2 UNK        -0.4546 
     35 C          27.1101   -3.3300   -0.7286 C.2       1 UNK         0.5154 
     36 O          26.0309   -3.5664   -0.1744 O.2       1 UNK        -0.5181 
     37 C          26.5753    1.8839   -5.3747 C.2       5 UNK         0.5014 
     38 O          27.0773    3.0078   -5.3322 O.2       5 UNK        -0.5248 
     39 N          25.3226    1.6592   -5.8069 N.am      6 UNK        -0.4434 
     40 CA         24.4384    2.6898   -6.3644 C.3       6 UNK         0.0363 
     41 CB         23.0452    2.0876   -6.6043 C.3       6 UNK        -0.1936 
     42 C          24.9740    3.3363   -7.6596 C.2       6 UNK         0.5081 
     43 O          24.5638    4.4508   -7.9841 O.2       6 UNK        -0.5248 
     44 N          25.8874    2.6475   -8.3576 N.am      7 UNK        -0.4718 
     45 CA         26.6222    3.1390   -9.5221 C.3       7 UNK         0.0273 
     46 CB         26.2091    2.3136  -10.7534 C.3       7 UNK        -0.1935 
     47 C          28.1441    3.1261   -9.2673 C.2       7 UNK         0.5018 
     48 O          28.9141    3.1106  -10.2295 O.2       7 UNK        -0.5186 
     49 N          28.5448    3.1534   -7.9833 N.am      8 UNK        -0.4240 
     50 CA         29.9025    3.2691   -7.4358 C.3       8 UNK         0.0235 
     51 CB         30.3359    4.7510   -7.4413 C.3       8 UNK        -0.2000 
     52 C          30.9332    2.3339   -8.0967 C.2       8 UNK         0.4941 
     53 O          31.0432    1.1698   -7.7070 O.2       8 UNK        -0.5273 
     54 N          31.6552    2.8633   -9.0958 N.am      9 UNK        -0.4262 
     55 CA         32.6836    2.1898   -9.8937 C.3       9 UNK         0.0264 
     56 CB         33.3141    3.2079  -10.8576 C.3       9 UNK        -0.1955 
     57 C          32.1982    0.9490  -10.6654 C.2       9 UNK         0.5031 
     58 O          33.0360    0.1410  -11.0686 O.2       9 UNK        -0.5390 
     59 N          30.8753    0.7814  -10.8202 N.am      10 UNK        -0.4204 
     60 CA         30.2257   -0.4161  -11.3683 C.3       10 UNK         0.0237 
     61 CB         28.7070   -0.1990  -11.3881 C.3       10 UNK        -0.1985 
     62 C          30.5628   -1.7272  -10.6281 C.2       10 UNK         0.4970 
     63 O          30.4344   -2.7954  -11.2275 O.2       10 UNK        -0.4914 
     64 N          31.0072   -1.6325   -9.3661 N.am      11 UNK        -0.4285 
     65 CA         31.6108   -2.7402   -8.6095 C.3       11 UNK         0.1007 
     66 C          32.9536   -3.2693   -9.2078 C.2       11 UNK         0.5703 
     67 N          33.6695   -2.5081  -10.0289 N.am      11 UNK        -0.7361 
     68 O          33.3442   -4.4036   -8.9434 O.2       11 UNK        -0.4986 
     69 C69        31.7545   -2.3564   -7.1127 C.3       12 UNK        -0.0947 
     70 S70        31.9082   -3.8000   -6.0024 S.3       12 UNK        -0.2240 
     71 C71        30.4551   -3.6355   -4.9231 C.3       12 UNK         0.0194 
     72 H72        27.4237    0.5422    3.2397 H         1 UNK         0.0906 
     73 H73        26.2312    0.9948    2.0187 H         1 UNK         0.0906 
     74 H74        26.1097   -0.5644    2.8368 H         1 UNK         0.0906 
     75 H75        26.7309   -2.2369    1.4771 H         1 UNK         0.3140 
     76 H76        28.5922   -1.7994   -0.7409 H         1 UNK         0.1085 
     77 H77        29.6576   -4.1021   -0.1941 H         1 UNK         0.0836 
     78 H78        28.9250   -4.0073    1.3812 H         1 UNK         0.0836 
     79 H79        32.2397   -3.6760   -0.2413 H         1 UNK         0.0731 
     80 H80        32.8331   -2.0628    0.0572 H         1 UNK         0.0731 
     81 H81        31.3987   -4.1136   -2.4130 H         1 UNK         0.1312 
     82 H82        30.0287   -0.9409   -4.9469 H         1 UNK         0.1406 
     83 H83        31.2646   -0.0863   -0.9343 H         1 UNK         0.1631 
     84 H84        30.4200    1.3608   -4.2635 H         1 UNK         0.0717 
     85 H85        31.0562    1.7265   -2.6870 H         1 UNK         0.0717 
     86 H86        27.8912   -0.5689   -3.2647 H         1 UNK         0.0934 
     87 H87        26.5535    0.4961   -3.0270 H         1 UNK         0.0934 
     88 H88        28.4462    0.8794   -5.3991 H         1 UNK         0.0739 
     89 H89        26.6506   -1.2990   -5.1239 H         1 UNK         0.3093 
     90 H90        25.8189   -1.7232   -8.5005 H         1 UNK         0.0818 
     91 H91        27.1234   -3.8136   -8.6611 H         1 UNK         0.0819 
     92 H92        28.1969   -2.4371   -8.8233 H         1 UNK         0.0819 
     93 H93        28.1448   -3.3271   -7.3099 H         1 UNK         0.0819 
     94 H94        25.8440   -3.6596   -6.4224 H         1 UNK         0.3041 
     95 H95        23.1748   -2.4502   -4.4667 H         1 UNK         0.0784 
     96 H96        21.9414   -3.4791   -6.3906 H         1 UNK         0.0793 
     97 H97        23.1071   -4.7942   -6.4447 H         1 UNK         0.0793 
     98 H98        22.0639   -4.5882   -5.0366 H         1 UNK         0.0793 
     99 H99        24.4097   -4.9314   -4.2634 H         1 UNK         0.3024 
    100 H100       25.8257   -5.1032   -2.2412 H         1 UNK         0.1171 
    101 H101       27.9940   -6.0064   -3.2724 H         1 UNK         0.0786 
    102 H102       26.6250   -6.0246   -4.3673 H         1 UNK         0.0786 
    103 H103       27.8473   -4.7777   -4.5298 H         1 UNK         0.0786 
    104 H104       28.3181   -3.5154   -2.3487 H         1 UNK         0.2977 
    105 H105       24.9810    0.7057   -5.8492 H         1 UNK         0.3127 
    106 H106       24.3457    3.4831   -5.6197 H         1 UNK         0.0770 
    107 H107       23.0727    1.2968   -7.3551 H         1 UNK         0.0814 
    108 H108       22.3473    2.8477   -6.9582 H         1 UNK         0.0814 
    109 H109       22.6289    1.6668   -5.6889 H         1 UNK         0.0814 
    110 H110       26.1877    1.7378   -8.0182 H         1 UNK         0.2983 
    111 H111       26.3685    4.1827   -9.7190 H         1 UNK         0.0947 
    112 H112       26.7701    2.6075  -11.6413 H         1 UNK         0.0806 
    113 H113       25.1528    2.4565  -10.9810 H         1 UNK         0.0806 
    114 H114       26.3686    1.2481  -10.5928 H         1 UNK         0.0806 
    115 H115       27.8168    3.1358   -7.2778 H         1 UNK         0.3000 
    116 H116       29.8376    2.9533   -6.3933 H         1 UNK         0.0850 
    117 H117       31.3534    4.8683   -7.0653 H         1 UNK         0.0810 
    118 H118       29.6886    5.3453   -6.7959 H         1 UNK         0.0810 
    119 H119       30.2942    5.1920   -8.4378 H         1 UNK         0.0810 
    120 H120       31.4402    3.8131   -9.3631 H         1 UNK         0.3040 
    121 H121       33.4559    1.8486   -9.2013 H         1 UNK         0.0766 
    122 H122       33.7572    4.0455  -10.3186 H         1 UNK         0.0812 
    123 H123       32.5795    3.6075  -11.5581 H         1 UNK         0.0812 
    124 H124       34.1096    2.7487  -11.4467 H         1 UNK         0.0812 
    125 H125       30.2620    1.5191  -10.4865 H         1 UNK         0.3205 
    126 H126       30.5715   -0.5295  -12.3976 H         1 UNK         0.0754 
    127 H127       28.1907   -1.0563  -11.8224 H         1 UNK         0.0769 
    128 H128       28.4407    0.6751  -11.9823 H         1 UNK         0.0769 
    129 H129       28.3162   -0.0578  -10.3800 H         1 UNK         0.0769 
    130 H130       31.0615   -0.7165   -8.9367 H         1 UNK         0.2981 
    131 H131       30.9010   -3.5675   -8.6708 H         1 UNK         0.0541 
    132 H132       33.3602   -1.5790  -10.3000 H         1 UNK         0.3459 
    133 H133       34.5265   -2.8755  -10.4096 H         1 UNK         0.3459 
    134 H134       30.8812   -1.7803   -6.8099 H         1 UNK         0.0612 
    135 H135       32.6101   -1.6966   -6.9581 H         1 UNK         0.0612 
    136 H136       30.2341   -4.6164   -4.5006 H         1 UNK         0.0624 
    137 H137       29.5834   -3.3497   -5.5108 H         1 UNK         0.0624 
@<TRIPOS>BOND
     1    1    2 1    
     2    1   72 1    
     3    1   73 1    
     4    1   74 1    
     5    2    3 2    
     6    2    4 am   BACKBONE|DICT|INTERRES
     7    4    5 1    
     8    4   75 1    
     9    5    6 1    
    10    5   35 1    
    11    5   76 1    
    12    6    7 1    
    13    6   77 1    
    14    6   78 1    
    15    7    8 1    
    16    8    9 1    
    17    8   79 1    
    18    8   80 1    
    19    9   10 ar   
    20    9   14 ar   
    21   10   11 ar   
    22   10   81 1    
    23   11   12 ar   
    24   11   71 1    
    25   12   13 ar   
    26   12   82 1    
    27   13   14 ar   
    28   13   15 1    
    29   14   83 1    
    30   15   16 1    
    31   15   84 1    
    32   15   85 1    
    33   16   17 1    
    34   17   18 1    
    35   17   86 1    
    36   17   87 1    
    37   18   19 1    
    38   18   37 1    
    39   18   88 1    
    40   19   20 am   BACKBONE|DICT|INTERRES
    41   19   89 1    
    42   20   21 2    
    43   20   22 1    
    44   22   23 1    
    45   22   24 1    
    46   22   90 1    
    47   23   91 1    
    48   23   92 1    
    49   23   93 1    
    50   24   25 am   BACKBONE|DICT|INTERRES
    51   24   94 1    
    52   25   26 2    
    53   25   27 1    
    54   27   28 1    
    55   27   29 1    
    56   27   95 1    
    57   28   96 1    
    58   28   97 1    
    59   28   98 1    
    60   29   30 am   BACKBONE|DICT|INTERRES
    61   29   99 1    
    62   30   31 2    
    63   30   32 1    
    64   32   33 1    
    65   32   34 1    
    66   32  100 1    
    67   33  101 1    
    68   33  102 1    
    69   33  103 1    
    70   34   35 am   BACKBONE|DICT|INTERRES
    71   34  104 1    
    72   35   36 2    
    73   37   38 2    
    74   37   39 am   BACKBONE|DICT|INTERRES
    75   39   40 1    
    76   39  105 1    
    77   40   41 1    
    78   40   42 1    
    79   40  106 1    
    80   41  107 1    
    81   41  108 1    
    82   41  109 1    
    83   42   43 2    
    84   42   44 am   BACKBONE|DICT|INTERRES
    85   44   45 1    
    86   44  110 1    
    87   45   46 1    
    88   45   47 1    
    89   45  111 1    
    90   46  112 1    
    91   46  113 1    
    92   46  114 1    
    93   47   48 2    
    94   47   49 am   BACKBONE|DICT|INTERRES
    95   49   50 1    
    96   49  115 1    
    97   50   51 1    
    98   50   52 1    
    99   50  116 1    
   100   51  117 1    
   101   51  118 1    
   102   51  119 1    
   103   52   53 2    
   104   52   54 am   BACKBONE|DICT|INTERRES
   105   54   55 1    
   106   54  120 1    
   107   55   56 1    
   108   55   57 1    
   109   55  121 1    
   110   56  122 1    
   111   56  123 1    
   112   56  124 1    
   113   57   58 2    
   114   57   59 am   BACKBONE|DICT|INTERRES
   115   59   60 1    
   116   59  125 1    
   117   60   61 1    
   118   60   62 1    
   119   60  126 1    
   120   61  127 1    
   121   61  128 1    
   122   61  129 1    
   123   62   63 2    
   124   62   64 am   BACKBONE|DICT|INTERRES
   125   64   65 1    
   126   64  130 1    
   127   65   66 1    
   128   65   69 1    
   129   65  131 1    
   130   66   67 am   BACKBONE|DICT|INTERRES
   131   66   68 2    
   132   67  132 1    
   133   67  133 1    
   134   69   70 1    
   135   69  134 1    
   136   69  135 1    
   137   70   71 1    
   138   71  136 1    
   139   71  137 1    
@<TRIPOS>SUBSTRUCTURE
     1 UNK         1 GROUP             0       ****    0 ROOT    
