@<TRIPOS>MOLECULE
3R137
137   139    1
SMALL
USER_CHARGES


@<TRIPOS>ATOM
      1 CA         27.7812   -5.2961   -9.5503 C.3       0 UNK        -0.2020 
      2 C          26.9740   -5.7260   -8.3341 C.2       0 UNK         0.4855 
      3 O          25.8149   -6.1160   -8.4723 O.2       0 UNK        -0.5197 
      4 N          27.5794   -5.6562   -7.1416 N.am      1 UNK        -0.4892 
      5 CA         26.9713   -6.0089   -5.8507 C.3       1 UNK         0.0835 
      6 C6         28.0397   -6.2362   -4.7471 C.3       12 UNK        -0.0855 
      7 S7         29.3684   -4.9826   -4.7115 S.3       12 UNK        -0.2931 
      8 C8         28.8257   -3.8961   -3.3476 C.3       12 UNK         0.0378 
      9 C9         29.7152   -2.6786   -3.0739 C.ar      12 UNK        -0.0802 
     10 C10        30.8954   -2.4102   -3.7836 C.ar      12 UNK        -0.0944 
     11 C11        31.6669   -1.2777   -3.5072 C.ar      12 UNK        -0.0787 
     12 C12        31.2590   -0.4132   -2.4840 C.ar      12 UNK        -0.0862 
     13 C13        30.0889   -0.6640   -1.7622 C.ar      12 UNK        -0.0733 
     14 C14        29.3245   -1.7947   -2.0637 C.ar      12 UNK        -0.0832 
     15 C15        29.6655    0.2752   -0.6400 C.3       12 UNK         0.0240 
     16 S16        28.0622    1.0786   -0.9601 S.3       12 UNK        -0.2522 
     17 C17        28.4040    2.0316   -2.4791 C.3       12 UNK        -0.0967 
     18 CA         27.6962    1.4262   -3.7206 C.3       5 UNK         0.0660 
     19 N          26.2381    1.2891   -3.5867 N.am      5 UNK        -0.4015 
     20 C          25.3318    2.2501   -3.3427 C.2       4 UNK         0.4946 
     21 O          25.6185    3.4442   -3.2387 O.2       4 UNK        -0.5353 
     22 CA         23.8488    1.8417   -3.2403 C.3       4 UNK         0.0277 
     23 CB         23.0826    2.3142   -4.4880 C.3       4 UNK        -0.1981 
     24 N          23.6452    0.4017   -3.0787 N.am      4 UNK        -0.4209 
     25 C          23.9179   -0.2998   -1.9693 C.2       3 UNK         0.4942 
     26 O          24.2500    0.2126   -0.9005 O.2       3 UNK        -0.5208 
     27 CA         23.8271   -1.8353   -2.0741 C.3       3 UNK         0.0250 
     28 CB         22.5404   -2.3453   -1.4045 C.3       3 UNK        -0.1990 
     29 N          23.8944   -2.3567   -3.4470 N.am      3 UNK        -0.4232 
     30 C          24.9421   -2.2242   -4.2727 C.2       2 UNK         0.4993 
     31 O          25.9707   -1.6109   -3.9821 O.2       2 UNK        -0.5286 
     32 CA         24.7917   -2.8164   -5.6816 C.3       2 UNK         0.0209 
     33 CB         24.8586   -1.7072   -6.7452 C.3       2 UNK        -0.1931 
     34 N          25.8211   -3.8194   -5.9548 N.am      2 UNK        -0.4546 
     35 C          25.8620   -5.0357   -5.3913 C.2       1 UNK         0.5154 
     36 O          25.0434   -5.4191   -4.5536 O.2       1 UNK        -0.5181 
     37 C          28.1158    2.1539   -5.0123 C.2       5 UNK         0.5014 
     38 O          28.9509    1.6333   -5.7463 O.2       5 UNK        -0.5248 
     39 N          27.5138    3.3151   -5.3002 N.am      6 UNK        -0.4434 
     40 CA         27.7988    4.1712   -6.4586 C.3       6 UNK         0.0363 
     41 CB         26.9417    5.4431   -6.3616 C.3       6 UNK        -0.1936 
     42 C          27.5975    3.4953   -7.8291 C.2       6 UNK         0.5081 
     43 O          28.2294    3.9080   -8.8026 O.2       6 UNK        -0.5248 
     44 N          26.7339    2.4741   -7.8794 N.am      7 UNK        -0.4718 
     45 CA         26.4505    1.6697   -9.0688 C.3       7 UNK         0.0273 
     46 CB         24.9313    1.4311   -9.1371 C.3       7 UNK        -0.1935 
     47 C          27.2127    0.3298   -9.0910 C.2       7 UNK         0.5018 
     48 O          27.0426   -0.4246  -10.0506 O.2       7 UNK        -0.5186 
     49 N          27.9986    0.0210   -8.0482 N.am      8 UNK        -0.4240 
     50 CA         28.7253   -1.2442   -7.9262 C.3       8 UNK         0.0235 
     51 CB         28.9551   -1.5597   -6.4415 C.3       8 UNK        -0.2000 
     52 C          30.0619   -1.2089   -8.6824 C.2       8 UNK         0.4941 
     53 O          30.5978   -0.1317   -8.9606 O.2       8 UNK        -0.5273 
     54 N          30.5906   -2.4033   -8.9797 N.am      9 UNK        -0.4262 
     55 CA         31.8571   -2.6187   -9.6811 C.3       9 UNK         0.0264 
     56 CB         32.0875   -4.1285   -9.8635 C.3       9 UNK        -0.1955 
     57 C          33.0391   -1.9653   -8.9452 C.2       9 UNK         0.5031 
     58 O          33.3167   -2.3300   -7.8018 O.2       9 UNK        -0.5390 
     59 N          33.6815   -1.0020   -9.6193 N.am      10 UNK        -0.4204 
     60 CA         34.8036   -0.1737   -9.1591 C.3       10 UNK         0.0237 
     61 CB         36.0287   -1.0404   -8.7924 C.3       10 UNK        -0.1985 
     62 C          34.4572    0.8457   -8.0519 C.2       10 UNK         0.4970 
     63 O          35.3808    1.4785   -7.5364 O.2       10 UNK        -0.4914 
     64 N          33.1685    1.0298   -7.7320 N.am      11 UNK        -0.4285 
     65 CA         32.6784    2.0424   -6.7800 C.3       11 UNK         0.1007 
     66 C          31.6145    2.9904   -7.3967 C.2       11 UNK         0.5703 
     67 N          30.8827    2.5999   -8.4322 N.am      11 UNK        -0.7361 
     68 O          31.4728    4.1223   -6.9401 O.2       11 UNK        -0.4986 
     69 C69        32.1583    1.4103   -5.4630 C.3       12 UNK        -0.0947 
     70 S70        33.4886    0.6887   -4.4475 S.3       12 UNK        -0.2240 
     71 C71        32.9479   -1.0494   -4.3140 C.3       12 UNK         0.0194 
     72 H72        27.6872   -6.0373  -10.3436 H         1 UNK         0.0906 
     73 H73        27.4118   -4.3436   -9.9298 H         1 UNK         0.0906 
     74 H74        28.8402   -5.1883   -9.3189 H         1 UNK         0.0906 
     75 H75        28.5396   -5.3476   -7.0753 H         1 UNK         0.3140 
     76 H76        26.4610   -6.9641   -5.9962 H         1 UNK         0.1085 
     77 H77        28.5242   -7.1974   -4.9260 H         1 UNK         0.0836 
     78 H78        27.5844   -6.3304   -3.7588 H         1 UNK         0.0836 
     79 H79        27.8174   -3.5443   -3.5675 H         1 UNK         0.0731 
     80 H80        28.7584   -4.4916   -2.4361 H         1 UNK         0.0731 
     81 H81        31.2283   -3.0756   -4.5666 H         1 UNK         0.1312 
     82 H82        31.8535    0.4558   -2.2406 H         1 UNK         0.1406 
     83 H83        28.4153   -1.9830   -1.5081 H         1 UNK         0.1631 
     84 H84        30.4188    1.0455   -0.4676 H         1 UNK         0.0717 
     85 H85        29.5931   -0.2932    0.2882 H         1 UNK         0.0717 
     86 H86        28.0873    3.0625   -2.3128 H         1 UNK         0.0934 
     87 H87        29.4831    2.0750   -2.6397 H         1 UNK         0.0934 
     88 H88        28.0611    0.4026   -3.8275 H         1 UNK         0.0739 
     89 H89        25.9154    0.3289   -3.6683 H         1 UNK         0.3093 
     90 H90        23.4325    2.3474   -2.3664 H         1 UNK         0.0818 
     91 H91        22.0174    2.0973   -4.4058 H         1 UNK         0.0819 
     92 H92        23.1801    3.3927   -4.6217 H         1 UNK         0.0819 
     93 H93        23.4542    1.8393   -5.3970 H         1 UNK         0.0819 
     94 H94        23.3484   -0.1090   -3.8968 H         1 UNK         0.3041 
     95 H95        24.6817   -2.2415   -1.5286 H         1 UNK         0.0784 
     96 H96        22.4753   -2.0024   -0.3708 H         1 UNK         0.0793 
     97 H97        21.6478   -1.9911   -1.9218 H         1 UNK         0.0793 
     98 H98        22.5081   -3.4349   -1.3834 H         1 UNK         0.0793 
     99 H99        23.0903   -2.8801   -3.7636 H         1 UNK         0.3024 
    100 H100       23.8180   -3.3049   -5.7646 H         1 UNK         0.1171 
    101 H101       24.7654   -2.1124   -7.7531 H         1 UNK         0.0786 
    102 H102       25.7943   -1.1514   -6.6928 H         1 UNK         0.0786 
    103 H103       24.0484   -0.9901   -6.6091 H         1 UNK         0.0786 
    104 H104       26.5428   -3.5751   -6.6149 H         1 UNK         0.2977 
    105 H105       26.8177    3.6465   -4.6344 H         1 UNK         0.3127 
    106 H106       28.8490    4.4607   -6.3950 H         1 UNK         0.0770 
    107 H107       25.8758    5.2128   -6.3827 H         1 UNK         0.0814 
    108 H108       27.1473    6.1176   -7.1941 H         1 UNK         0.0814 
    109 H109       27.1488    5.9926   -5.4431 H         1 UNK         0.0814 
    110 H110       26.2689    2.2048   -7.0252 H         1 UNK         0.2983 
    111 H111       26.7467    2.2150   -9.9676 H         1 UNK         0.0947 
    112 H112       24.6611    0.8600  -10.0264 H         1 UNK         0.0806 
    113 H113       24.3851    2.3735   -9.1841 H         1 UNK         0.0806 
    114 H114       24.5687    0.8770   -8.2713 H         1 UNK         0.0806 
    115 H115       28.1937    0.7206   -7.3381 H         1 UNK         0.3000 
    116 H116       28.1111   -2.0417   -8.3501 H         1 UNK         0.0850 
    117 H117       29.3986   -2.5468   -6.3215 H         1 UNK         0.0810 
    118 H118       28.0269   -1.5513   -5.8709 H         1 UNK         0.0810 
    119 H119       29.6357   -0.8481   -5.9761 H         1 UNK         0.0810 
    120 H120       30.1132   -3.2335   -8.6667 H         1 UNK         0.3040 
    121 H121       31.7611   -2.1700  -10.6721 H         1 UNK         0.0766 
    122 H122       32.1445   -4.6473   -8.9055 H         1 UNK         0.0812 
    123 H123       33.0232   -4.3182  -10.3912 H         1 UNK         0.0812 
    124 H124       31.2894   -4.5864  -10.4483 H         1 UNK         0.0812 
    125 H125       33.3366   -0.7713  -10.5417 H         1 UNK         0.3205 
    126 H126       35.0874    0.4293  -10.0228 H         1 UNK         0.0754 
    127 H127       36.9123   -0.4219   -8.6299 H         1 UNK         0.0769 
    128 H128       36.2714   -1.7438   -9.5889 H         1 UNK         0.0769 
    129 H129       35.8636   -1.6109   -7.8780 H         1 UNK         0.0769 
    130 H130       32.4544    0.4906   -8.2069 H         1 UNK         0.2981 
    131 H131       33.5012    2.7069   -6.5099 H         1 UNK         0.0541 
    132 H132       30.8864    1.6314   -8.7416 H         1 UNK         0.3459 
    133 H133       30.1680    3.2261   -8.7799 H         1 UNK         0.3459 
    134 H134       31.4099    0.6497   -5.6853 H         1 UNK         0.0612 
    135 H135       31.6569    2.1558   -4.8429 H         1 UNK         0.0612 
    136 H136       32.8261   -1.4421   -5.3243 H         1 UNK         0.0624 
    137 H137       33.7514   -1.6245   -3.8529 H         1 UNK         0.0624 
@<TRIPOS>BOND
     1    1    2 1    
     2    1   72 1    
     3    1   73 1    
     4    1   74 1    
     5    2    3 2    
     6    2    4 am   BACKBONE|DICT|INTERRES
     7    4    5 1    
     8    4   75 1    
     9    5    6 1    
    10    5   35 1    
    11    5   76 1    
    12    6    7 1    
    13    6   77 1    
    14    6   78 1    
    15    7    8 1    
    16    8    9 1    
    17    8   79 1    
    18    8   80 1    
    19    9   10 ar   
    20    9   14 ar   
    21   10   11 ar   
    22   10   81 1    
    23   11   12 ar   
    24   11   71 1    
    25   12   13 ar   
    26   12   82 1    
    27   13   14 ar   
    28   13   15 1    
    29   14   83 1    
    30   15   16 1    
    31   15   84 1    
    32   15   85 1    
    33   16   17 1    
    34   17   18 1    
    35   17   86 1    
    36   17   87 1    
    37   18   19 1    
    38   18   37 1    
    39   18   88 1    
    40   19   20 am   BACKBONE|DICT|INTERRES
    41   19   89 1    
    42   20   21 2    
    43   20   22 1    
    44   22   23 1    
    45   22   24 1    
    46   22   90 1    
    47   23   91 1    
    48   23   92 1    
    49   23   93 1    
    50   24   25 am   BACKBONE|DICT|INTERRES
    51   24   94 1    
    52   25   26 2    
    53   25   27 1    
    54   27   28 1    
    55   27   29 1    
    56   27   95 1    
    57   28   96 1    
    58   28   97 1    
    59   28   98 1    
    60   29   30 am   BACKBONE|DICT|INTERRES
    61   29   99 1    
    62   30   31 2    
    63   30   32 1    
    64   32   33 1    
    65   32   34 1    
    66   32  100 1    
    67   33  101 1    
    68   33  102 1    
    69   33  103 1    
    70   34   35 am   BACKBONE|DICT|INTERRES
    71   34  104 1    
    72   35   36 2    
    73   37   38 2    
    74   37   39 am   BACKBONE|DICT|INTERRES
    75   39   40 1    
    76   39  105 1    
    77   40   41 1    
    78   40   42 1    
    79   40  106 1    
    80   41  107 1    
    81   41  108 1    
    82   41  109 1    
    83   42   43 2    
    84   42   44 am   BACKBONE|DICT|INTERRES
    85   44   45 1    
    86   44  110 1    
    87   45   46 1    
    88   45   47 1    
    89   45  111 1    
    90   46  112 1    
    91   46  113 1    
    92   46  114 1    
    93   47   48 2    
    94   47   49 am   BACKBONE|DICT|INTERRES
    95   49   50 1    
    96   49  115 1    
    97   50   51 1    
    98   50   52 1    
    99   50  116 1    
   100   51  117 1    
   101   51  118 1    
   102   51  119 1    
   103   52   53 2    
   104   52   54 am   BACKBONE|DICT|INTERRES
   105   54   55 1    
   106   54  120 1    
   107   55   56 1    
   108   55   57 1    
   109   55  121 1    
   110   56  122 1    
   111   56  123 1    
   112   56  124 1    
   113   57   58 2    
   114   57   59 am   BACKBONE|DICT|INTERRES
   115   59   60 1    
   116   59  125 1    
   117   60   61 1    
   118   60   62 1    
   119   60  126 1    
   120   61  127 1    
   121   61  128 1    
   122   61  129 1    
   123   62   63 2    
   124   62   64 am   BACKBONE|DICT|INTERRES
   125   64   65 1    
   126   64  130 1    
   127   65   66 1    
   128   65   69 1    
   129   65  131 1    
   130   66   67 am   BACKBONE|DICT|INTERRES
   131   66   68 2    
   132   67  132 1    
   133   67  133 1    
   134   69   70 1    
   135   69  134 1    
   136   69  135 1    
   137   70   71 1    
   138   71  136 1    
   139   71  137 1    
@<TRIPOS>SUBSTRUCTURE
     1 UNK         1 GROUP             0       ****    0 ROOT    
