@<TRIPOS>MOLECULE
3R137
137   139    1
SMALL
USER_CHARGES


@<TRIPOS>ATOM
      1 CA         23.6418   -2.5689   -6.2689 C.3       0 UNK        -0.2020 
      2 C          24.0034   -4.0143   -6.5984 C.2       0 UNK         0.4855 
      3 O          23.4457   -4.5592   -7.5485 O.2       0 UNK        -0.5197 
      4 N          24.8976   -4.6976   -5.8656 N.am      1 UNK        -0.4892 
      5 CA         25.7010   -4.2746   -4.7052 C.3       1 UNK         0.0835 
      6 C6         26.9113   -3.3741   -5.0702 C.3       12 UNK        -0.0855 
      7 S7         28.1044   -4.2185   -6.1600 S.3       12 UNK        -0.2931 
      8 C8         29.2576   -4.9699   -4.9619 C.3       12 UNK         0.0378 
      9 C9         30.1355   -3.9392   -4.2626 C.ar      12 UNK        -0.0802 
     10 C10        31.2734   -3.4339   -4.9016 C.ar      12 UNK        -0.0944 
     11 C11        32.0906   -2.4951   -4.2629 C.ar      12 UNK        -0.0787 
     12 C12        31.7651   -2.0718   -2.9717 C.ar      12 UNK        -0.0862 
     13 C13        30.6202   -2.5517   -2.3301 C.ar      12 UNK        -0.0733 
     14 C14        29.8199   -3.5007   -2.9717 C.ar      12 UNK        -0.0832 
     15 C15        30.2398   -2.0192   -0.9549 C.3       12 UNK         0.0240 
     16 S16        28.7755   -0.9291   -1.0060 S.3       12 UNK        -0.2522 
     17 C17        29.2023    0.2638   -2.3236 C.3       12 UNK        -0.0967 
     18 CA         28.3010    0.0592   -3.5662 C.3       5 UNK         0.0660 
     19 N          26.9073    0.4374   -3.2770 N.am      5 UNK        -0.4015 
     20 C          25.8808    0.4122   -4.1376 C.2       4 UNK         0.4946 
     21 O          25.9845    0.0701   -5.3144 O.2       4 UNK        -0.5353 
     22 CA         24.5239    0.8669   -3.5910 C.3       4 UNK         0.0277 
     23 CB         23.4275    0.9420   -4.6747 C.3       4 UNK        -0.1981 
     24 N          24.1029   -0.0117   -2.5009 N.am      4 UNK        -0.4209 
     25 C          23.2587    0.3538   -1.5259 C.2       3 UNK         0.4942 
     26 O          22.8019    1.4946   -1.4250 O.2       3 UNK        -0.5208 
     27 CA         22.8638   -0.7059   -0.4745 C.3       3 UNK         0.0250 
     28 CB         21.4459   -0.4738    0.0919 C.3       3 UNK        -0.1990 
     29 N          23.0183   -2.0969   -0.9181 N.am      3 UNK        -0.4232 
     30 C          22.4018   -2.7076   -1.9416 C.2       2 UNK         0.4993 
     31 O          21.5932   -2.1675   -2.6989 O.2       2 UNK        -0.5286 
     32 CA         22.7858   -4.1816   -2.1651 C.3       2 UNK         0.0209 
     33 CB         21.5352   -5.0517   -2.3840 C.3       2 UNK        -0.1931 
     34 N          23.7097   -4.3889   -3.2860 N.am      2 UNK        -0.4546 
     35 C          24.8612   -3.7409   -3.5223 C.2       1 UNK         0.5154 
     36 O          25.2666   -2.7865   -2.8551 O.2       1 UNK        -0.5181 
     37 C          28.9024    0.7546   -4.8082 C.2       5 UNK         0.5014 
     38 O          29.6937    0.1410   -5.5236 O.2       5 UNK        -0.5248 
     39 N          28.4815    1.9992   -5.0779 N.am      6 UNK        -0.4434 
     40 CA         28.8758    2.7798   -6.2528 C.3       6 UNK         0.0363 
     41 CB         28.3508    4.2165   -6.1050 C.3       6 UNK        -0.1936 
     42 C          28.4341    2.1837   -7.6051 C.2       6 UNK         0.5081 
     43 O          29.0153    2.5542   -8.6272 O.2       6 UNK        -0.5248 
     44 N          27.4452    1.2729   -7.6060 N.am      7 UNK        -0.4718 
     45 CA         26.9260    0.5964   -8.8015 C.3       7 UNK         0.0273 
     46 CB         25.7149   -0.2710   -8.4243 C.3       7 UNK        -0.1935 
     47 C          27.9717   -0.2522   -9.5447 C.2       7 UNK         0.5018 
     48 O          27.8477   -0.4273  -10.7574 O.2       7 UNK        -0.5186 
     49 N          29.0117   -0.7148   -8.8371 N.am      8 UNK        -0.4240 
     50 CA         30.1686   -1.4230   -9.3921 C.3       8 UNK         0.0235 
     51 CB         30.8251   -2.2444   -8.2677 C.3       8 UNK        -0.2000 
     52 C          31.1719   -0.4698  -10.0765 C.2       8 UNK         0.4941 
     53 O          32.3736   -0.5820   -9.8349 O.2       8 UNK        -0.5273 
     54 N          30.6694    0.4734  -10.8892 N.am      9 UNK        -0.4262 
     55 CA         31.4038    1.5303  -11.6009 C.3       9 UNK         0.0264 
     56 CB         32.1805    0.9279  -12.7905 C.3       9 UNK        -0.1955 
     57 C          32.3017    2.3667  -10.6655 C.2       9 UNK         0.5031 
     58 O          33.4865    2.5579  -10.9519 O.2       9 UNK        -0.5390 
     59 N          31.7344    2.7856   -9.5226 N.am      10 UNK        -0.4204 
     60 CA         32.3996    3.4726   -8.4054 C.3       10 UNK         0.0237 
     61 CB         32.8401    4.8919   -8.8233 C.3       10 UNK        -0.1985 
     62 C          33.5471    2.6652   -7.7556 C.2       10 UNK         0.4970 
     63 O          34.3932    3.2581   -7.0844 O.2       10 UNK        -0.4914 
     64 N          33.5609    1.3412   -7.9684 N.am      11 UNK        -0.4285 
     65 CA         34.6106    0.3926   -7.5645 C.3       11 UNK         0.1007 
     66 C          35.9622    0.5941   -8.3154 C.2       11 UNK         0.5703 
     67 N          35.9886    1.2733   -9.4582 N.am      11 UNK        -0.7361 
     68 O          37.0010    0.1049   -7.8771 O.2       11 UNK        -0.4986 
     69 C69        34.7689    0.2529   -6.0227 C.3       12 UNK        -0.0947 
     70 S70        33.1920   -0.1290   -5.1878 S.3       12 UNK        -0.2240 
     71 C71        33.3232   -1.9309   -4.9583 C.3       12 UNK         0.0194 
     72 H72        24.4577   -2.0220   -5.8067 H         1 UNK         0.0906 
     73 H73        23.3699   -2.0327   -7.1777 H         1 UNK         0.0906 
     74 H74        22.7857   -2.5416   -5.5949 H         1 UNK         0.0906 
     75 H75        25.0822   -5.6486   -6.1546 H         1 UNK         0.3140 
     76 H76        26.1235   -5.1999   -4.3098 H         1 UNK         0.1085 
     77 H77        27.4337   -3.0510   -4.1724 H         1 UNK         0.0836 
     78 H78        26.5944   -2.4607   -5.5694 H         1 UNK         0.0836 
     79 H79        29.8928   -5.6816   -5.4914 H         1 UNK         0.0731 
     80 H80        28.6952   -5.5548   -4.2327 H         1 UNK         0.0731 
     81 H81        31.5184   -3.7713   -5.8989 H         1 UNK         0.1312 
     82 H82        32.3912   -1.3392   -2.4807 H         1 UNK         0.1406 
     83 H83        28.9384   -3.8777   -2.4709 H         1 UNK         0.1631 
     84 H84        31.0712   -1.4697   -0.5106 H         1 UNK         0.0717 
     85 H85        30.0354   -2.8560   -0.2856 H         1 UNK         0.0717 
     86 H86        29.0918    1.2758   -1.9297 H         1 UNK         0.0934 
     87 H87        30.2586    0.1669   -2.5773 H         1 UNK         0.0934 
     88 H88        28.2942   -1.0038   -3.8067 H         1 UNK         0.0739 
     89 H89        26.7201    0.7032   -2.3210 H         1 UNK         0.3093 
     90 H90        24.6776    1.8752   -3.2001 H         1 UNK         0.0818 
     91 H91        23.7504    1.5480   -5.5222 H         1 UNK         0.0819 
     92 H92        23.1709   -0.0456   -5.0550 H         1 UNK         0.0819 
     93 H93        22.5150    1.3937   -4.2858 H         1 UNK         0.0819 
     94 H94        24.4634   -0.9633   -2.5230 H         1 UNK         0.3041 
     95 H95        23.5683   -0.5760    0.3483 H         1 UNK         0.0784 
     96 H96        21.3653    0.5059    0.5646 H         1 UNK         0.0793 
     97 H97        20.6868   -0.5204   -0.6896 H         1 UNK         0.0793 
     98 H98        21.1939   -1.2163    0.8491 H         1 UNK         0.0793 
     99 H99        23.7072   -2.6296   -0.4043 H         1 UNK         0.3024 
    100 H100       23.2851   -4.5460   -1.2648 H         1 UNK         0.1171 
    101 H101       21.0221   -4.7953   -3.3120 H         1 UNK         0.0786 
    102 H102       21.7881   -6.1114   -2.4219 H         1 UNK         0.0786 
    103 H103       20.8204   -4.9202   -1.5703 H         1 UNK         0.0786 
    104 H104       23.4654   -5.1346   -3.9222 H         1 UNK         0.2977 
    105 H105       27.8165    2.4270   -4.4507 H         1 UNK         0.3127 
    106 H106       29.9660    2.8134   -6.2598 H         1 UNK         0.0770 
    107 H107       27.2612    4.2456   -6.0664 H         1 UNK         0.0814 
    108 H108       28.6631    4.8346   -6.9483 H         1 UNK         0.0814 
    109 H109       28.7343    4.6902   -5.2012 H         1 UNK         0.0814 
    110 H110       27.0302    0.9916   -6.7212 H         1 UNK         0.2983 
    111 H111       26.5894    1.3721   -9.4926 H         1 UNK         0.0947 
    112 H112       25.2656   -0.7228   -9.3096 H         1 UNK         0.0806 
    113 H113       24.9403    0.3165   -7.9310 H         1 UNK         0.0806 
    114 H114       25.9982   -1.0832   -7.7535 H         1 UNK         0.0806 
    115 H115       29.0528   -0.4889   -7.8508 H         1 UNK         0.3000 
    116 H116       29.8200   -2.1206  -10.1565 H         1 UNK         0.0850 
    117 H117       30.1204   -2.9540   -7.8380 H         1 UNK         0.0810 
    118 H118       31.1893   -1.6041   -7.4623 H         1 UNK         0.0810 
    119 H119       31.6731   -2.8211   -8.6390 H         1 UNK         0.0810 
    120 H120       29.6630    0.4663  -11.0213 H         1 UNK         0.3040 
    121 H121       30.6557    2.2154  -12.0025 H         1 UNK         0.0766 
    122 H122       32.9640    0.2465  -12.4566 H         1 UNK         0.0812 
    123 H123       31.5188    0.3764  -13.4582 H         1 UNK         0.0812 
    124 H124       32.6590    1.7095  -13.3820 H         1 UNK         0.0812 
    125 H125       30.7473    2.5802   -9.3693 H         1 UNK         0.3205 
    126 H126       31.6428    3.5862   -7.6304 H         1 UNK         0.0754 
    127 H127       33.1921    5.4636   -7.9637 H         1 UNK         0.0769 
    128 H128       32.0133    5.4498   -9.2630 H         1 UNK         0.0769 
    129 H129       33.6525    4.8662   -9.5502 H         1 UNK         0.0769 
    130 H130       32.8614    0.9362   -8.5795 H         1 UNK         0.2981 
    131 H131       34.2600   -0.5758   -7.9216 H         1 UNK         0.0541 
    132 H132       36.8644    1.3895   -9.9422 H         1 UNK         0.3459 
    133 H133       35.1395    1.6651   -9.8483 H         1 UNK         0.3459 
    134 H134       35.1679    1.1728   -5.5935 H         1 UNK         0.0612 
    135 H135       35.4904   -0.5287   -5.7791 H         1 UNK         0.0612 
    136 H136       33.4686   -2.4016   -5.9319 H         1 UNK         0.0624 
    137 H137       34.2073   -2.1578   -4.3611 H         1 UNK         0.0624 
@<TRIPOS>BOND
     1    1    2 1    
     2    1   72 1    
     3    1   73 1    
     4    1   74 1    
     5    2    3 2    
     6    2    4 am   BACKBONE|DICT|INTERRES
     7    4    5 1    
     8    4   75 1    
     9    5    6 1    
    10    5   35 1    
    11    5   76 1    
    12    6    7 1    
    13    6   77 1    
    14    6   78 1    
    15    7    8 1    
    16    8    9 1    
    17    8   79 1    
    18    8   80 1    
    19    9   10 ar   
    20    9   14 ar   
    21   10   11 ar   
    22   10   81 1    
    23   11   12 ar   
    24   11   71 1    
    25   12   13 ar   
    26   12   82 1    
    27   13   14 ar   
    28   13   15 1    
    29   14   83 1    
    30   15   16 1    
    31   15   84 1    
    32   15   85 1    
    33   16   17 1    
    34   17   18 1    
    35   17   86 1    
    36   17   87 1    
    37   18   19 1    
    38   18   37 1    
    39   18   88 1    
    40   19   20 am   BACKBONE|DICT|INTERRES
    41   19   89 1    
    42   20   21 2    
    43   20   22 1    
    44   22   23 1    
    45   22   24 1    
    46   22   90 1    
    47   23   91 1    
    48   23   92 1    
    49   23   93 1    
    50   24   25 am   BACKBONE|DICT|INTERRES
    51   24   94 1    
    52   25   26 2    
    53   25   27 1    
    54   27   28 1    
    55   27   29 1    
    56   27   95 1    
    57   28   96 1    
    58   28   97 1    
    59   28   98 1    
    60   29   30 am   BACKBONE|DICT|INTERRES
    61   29   99 1    
    62   30   31 2    
    63   30   32 1    
    64   32   33 1    
    65   32   34 1    
    66   32  100 1    
    67   33  101 1    
    68   33  102 1    
    69   33  103 1    
    70   34   35 am   BACKBONE|DICT|INTERRES
    71   34  104 1    
    72   35   36 2    
    73   37   38 2    
    74   37   39 am   BACKBONE|DICT|INTERRES
    75   39   40 1    
    76   39  105 1    
    77   40   41 1    
    78   40   42 1    
    79   40  106 1    
    80   41  107 1    
    81   41  108 1    
    82   41  109 1    
    83   42   43 2    
    84   42   44 am   BACKBONE|DICT|INTERRES
    85   44   45 1    
    86   44  110 1    
    87   45   46 1    
    88   45   47 1    
    89   45  111 1    
    90   46  112 1    
    91   46  113 1    
    92   46  114 1    
    93   47   48 2    
    94   47   49 am   BACKBONE|DICT|INTERRES
    95   49   50 1    
    96   49  115 1    
    97   50   51 1    
    98   50   52 1    
    99   50  116 1    
   100   51  117 1    
   101   51  118 1    
   102   51  119 1    
   103   52   53 2    
   104   52   54 am   BACKBONE|DICT|INTERRES
   105   54   55 1    
   106   54  120 1    
   107   55   56 1    
   108   55   57 1    
   109   55  121 1    
   110   56  122 1    
   111   56  123 1    
   112   56  124 1    
   113   57   58 2    
   114   57   59 am   BACKBONE|DICT|INTERRES
   115   59   60 1    
   116   59  125 1    
   117   60   61 1    
   118   60   62 1    
   119   60  126 1    
   120   61  127 1    
   121   61  128 1    
   122   61  129 1    
   123   62   63 2    
   124   62   64 am   BACKBONE|DICT|INTERRES
   125   64   65 1    
   126   64  130 1    
   127   65   66 1    
   128   65   69 1    
   129   65  131 1    
   130   66   67 am   BACKBONE|DICT|INTERRES
   131   66   68 2    
   132   67  132 1    
   133   67  133 1    
   134   69   70 1    
   135   69  134 1    
   136   69  135 1    
   137   70   71 1    
   138   71  136 1    
   139   71  137 1    
@<TRIPOS>SUBSTRUCTURE
     1 UNK         1 GROUP             0       ****    0 ROOT    
