@<TRIPOS>MOLECULE
3R137
137   139    1
SMALL
USER_CHARGES


@<TRIPOS>ATOM
      1 CA         25.2838   -6.1871   -5.6015 C.3       0 UNK        -0.2020 
      2 C          25.4802   -5.5776   -4.2221 C.2       0 UNK         0.4855 
      3 O          24.5094   -5.1517   -3.5961 O.2       0 UNK        -0.5197 
      4 N          26.7342   -5.5231   -3.7546 N.am      1 UNK        -0.4892 
      5 CA         27.1684   -4.9695   -2.4659 C.3       1 UNK         0.0835 
      6 C6         28.6909   -5.1870   -2.2892 C.3       12 UNK        -0.0855 
      7 S7         29.2837   -4.8450   -0.5990 S.3       12 UNK        -0.2931 
      8 C8         30.9783   -4.2604   -0.9318 C.3       12 UNK         0.0378 
      9 C9         30.9996   -2.8932   -1.6032 C.ar      12 UNK        -0.0802 
     10 C10        31.3857   -2.7620   -2.9419 C.ar      12 UNK        -0.0944 
     11 C11        31.4197   -1.5024   -3.5470 C.ar      12 UNK        -0.0787 
     12 C12        31.0866   -0.3706   -2.7995 C.ar      12 UNK        -0.0862 
     13 C13        30.6627   -0.4896   -1.4720 C.ar      12 UNK        -0.0733 
     14 C14        30.6355   -1.7549   -0.8777 C.ar      12 UNK        -0.0832 
     15 C15        30.2162    0.7296   -0.6670 C.3       12 UNK         0.0240 
     16 S16        29.2108    1.9368   -1.6053 S.3       12 UNK        -0.2522 
     17 C17        27.9478    0.8895   -2.4086 C.3       12 UNK        -0.0967 
     18 CA         28.0599    0.9520   -3.9571 C.3       5 UNK         0.0660 
     19 N          27.7374   -0.3290   -4.5912 N.am      5 UNK        -0.4015 
     20 C          27.8737   -0.6047   -5.8967 C.2       4 UNK         0.4946 
     21 O          28.3816    0.1639   -6.7121 O.2       4 UNK        -0.5353 
     22 CA         27.2761   -1.9329   -6.3892 C.3       4 UNK         0.0277 
     23 CB         28.2559   -3.0999   -6.1912 C.3       4 UNK        -0.1981 
     24 N          26.0017   -2.2222   -5.7272 N.am      4 UNK        -0.4209 
     25 C          24.8665   -1.5461   -5.9612 C.2       3 UNK         0.4942 
     26 O          24.7589   -0.6775   -6.8255 O.2       3 UNK        -0.5208 
     27 CA         23.6641   -1.8477   -5.0504 C.3       3 UNK         0.0250 
     28 CB         22.7843   -2.9559   -5.6485 C.3       3 UNK        -0.1990 
     29 N          24.0682   -2.2042   -3.6873 N.am      3 UNK        -0.4232 
     30 C          24.5769   -1.3240   -2.8109 C.2       2 UNK         0.4993 
     31 O          24.7065   -0.1240   -3.0521 O.2       2 UNK        -0.5286 
     32 CA         25.0857   -1.8762   -1.4665 C.3       2 UNK         0.0209 
     33 CB         23.9487   -1.9150   -0.4339 C.3       2 UNK        -0.1931 
     34 N          25.6964   -3.2054   -1.5769 N.am      2 UNK        -0.4546 
     35 C          26.7634   -3.4846   -2.3384 C.2       1 UNK         0.5154 
     36 O          27.3658   -2.6301   -2.9890 O.2       1 UNK        -0.5181 
     37 C          27.2328    2.1157   -4.5420 C.2       5 UNK         0.5014 
     38 O          27.7992    3.1650   -4.8498 O.2       5 UNK        -0.5248 
     39 N          25.9196    1.8981   -4.7139 N.am      6 UNK        -0.4434 
     40 CA         24.9942    2.8414   -5.3471 C.3       6 UNK         0.0363 
     41 CB         23.5492    2.3489   -5.1715 C.3       6 UNK        -0.1936 
     42 C          25.3083    3.0925   -6.8330 C.2       6 UNK         0.5081 
     43 O          25.2222    4.2375   -7.2780 O.2       6 UNK        -0.5248 
     44 N          25.6776    2.0335   -7.5698 N.am      7 UNK        -0.4718 
     45 CA         26.1262    2.1119   -8.9642 C.3       7 UNK         0.0273 
     46 CB         26.1901    0.7002   -9.5691 C.3       7 UNK        -0.1935 
     47 C          27.4816    2.8234   -9.1178 C.2       7 UNK         0.5018 
     48 O          27.6850    3.5224  -10.1112 O.2       7 UNK        -0.5186 
     49 N          28.3819    2.6202   -8.1448 N.am      8 UNK        -0.4240 
     50 CA         29.7169    3.2077   -7.9610 C.3       8 UNK         0.0235 
     51 CB         29.6462    4.7422   -7.8447 C.3       8 UNK        -0.2000 
     52 C          30.7660    2.7752   -8.9998 C.2       8 UNK         0.4941 
     53 O          31.9103    2.5222   -8.6239 O.2       8 UNK        -0.5273 
     54 N          30.3707    2.6790  -10.2754 N.am      9 UNK        -0.4262 
     55 CA         31.2002    2.2013  -11.3849 C.3       9 UNK         0.0264 
     56 CB         30.5028    2.5280  -12.7149 C.3       9 UNK        -0.1955 
     57 C          31.5153    0.6976  -11.2970 C.2       9 UNK         0.5031 
     58 O          32.5664    0.2694  -11.7753 O.2       9 UNK        -0.5390 
     59 N          30.6196   -0.0756  -10.6687 N.am      10 UNK        -0.4204 
     60 CA         30.7539   -1.5121  -10.4183 C.3       10 UNK         0.0237 
     61 CB         29.3428   -2.1199  -10.2921 C.3       10 UNK        -0.1985 
     62 C          31.6265   -1.7862   -9.1770 C.2       10 UNK         0.4970 
     63 O          31.1833   -2.4724   -8.2567 O.2       10 UNK        -0.4914 
     64 N          32.8403   -1.2291   -9.1569 N.am      11 UNK        -0.4285 
     65 CA         33.7683   -1.2733   -8.0221 C.3       11 UNK         0.1007 
     66 C          35.2476   -1.2143   -8.4865 C.2       11 UNK         0.5703 
     67 N          36.1910   -1.3342   -7.5627 N.am      11 UNK        -0.7361 
     68 O          35.5529   -1.0633   -9.6688 O.2       11 UNK        -0.4986 
     69 C69        33.4123   -0.1906   -6.9596 C.3       12 UNK        -0.0947 
     70 S70        33.4926   -0.8157   -5.2493 S.3       12 UNK        -0.2240 
     71 C71        31.7700   -1.3531   -5.0181 C.3       12 UNK         0.0194 
     72 H72        25.1602   -5.4028   -6.3476 H         1 UNK         0.0906 
     73 H73        26.1318   -6.8057   -5.8947 H         1 UNK         0.0906 
     74 H74        24.3922   -6.8137   -5.6132 H         1 UNK         0.0906 
     75 H75        27.4786   -5.8839   -4.3343 H         1 UNK         0.3140 
     76 H76        26.6547   -5.5346   -1.6852 H         1 UNK         0.1085 
     77 H77        28.9454   -6.2252   -2.5085 H         1 UNK         0.0836 
     78 H78        29.2446   -4.5870   -3.0127 H         1 UNK         0.0836 
     79 H79        31.5029   -5.0008   -1.5380 H         1 UNK         0.0731 
     80 H80        31.5215   -4.2017    0.0125 H         1 UNK         0.0731 
     81 H81        31.6511   -3.6392   -3.5159 H         1 UNK         0.1312 
     82 H82        31.1286    0.6032   -3.2662 H         1 UNK         0.1406 
     83 H83        30.3194   -1.8618    0.1513 H         1 UNK         0.1631 
     84 H84        31.1006    1.2366   -0.2794 H         1 UNK         0.0717 
     85 H85        29.6352    0.4157    0.2016 H         1 UNK         0.0717 
     86 H86        28.0695   -0.1360   -2.0578 H         1 UNK         0.0934 
     87 H87        26.9588    1.1906   -2.0570 H         1 UNK         0.0934 
     88 H88        29.0984    1.1474   -4.2290 H         1 UNK         0.0739 
     89 H89        27.4043   -1.0708   -3.9795 H         1 UNK         0.3093 
     90 H90        27.0855   -1.8360   -7.4600 H         1 UNK         0.0818 
     91 H91        28.5507   -3.2253   -5.1504 H         1 UNK         0.0819 
     92 H92        27.8314   -4.0411   -6.5401 H         1 UNK         0.0819 
     93 H93        29.1694   -2.9297   -6.7585 H         1 UNK         0.0819 
     94 H94        26.0292   -2.8687   -4.9523 H         1 UNK         0.3041 
     95 H95        23.0599   -0.9398   -4.9946 H         1 UNK         0.0784 
     96 H96        22.4369   -2.6801   -6.6451 H         1 UNK         0.0793 
     97 H97        23.3209   -3.8990   -5.7417 H         1 UNK         0.0793 
     98 H98        21.9004   -3.1336   -5.0357 H         1 UNK         0.0793 
     99 H99        24.0357   -3.1889   -3.4377 H         1 UNK         0.3024 
    100 H100       25.8539   -1.1891   -1.1049 H         1 UNK         0.1171 
    101 H101       24.3145   -2.2146    0.5485 H         1 UNK         0.0786 
    102 H102       23.4913   -0.9309   -0.3209 H         1 UNK         0.0786 
    103 H103       23.1601   -2.6098   -0.7260 H         1 UNK         0.0786 
    104 H104       25.2186   -3.9647   -1.1124 H         1 UNK         0.2977 
    105 H105       25.5165    1.0403   -4.3444 H         1 UNK         0.3127 
    106 H106       25.0918    3.7951   -4.8241 H         1 UNK         0.0770 
    107 H107       23.3797    1.4029   -5.6855 H         1 UNK         0.0814 
    108 H108       22.8405    3.0711   -5.5787 H         1 UNK         0.0814 
    109 H109       23.3015    2.2081   -4.1192 H         1 UNK         0.0814 
    110 H110       25.6384    1.1089   -7.1515 H         1 UNK         0.2983 
    111 H111       25.3870    2.6899   -9.5230 H         1 UNK         0.0947 
    112 H112       26.4886    0.7366  -10.6177 H         1 UNK         0.0806 
    113 H113       25.2189    0.2067   -9.5255 H         1 UNK         0.0806 
    114 H114       26.9082    0.0686   -9.0464 H         1 UNK         0.0806 
    115 H115       28.1429    1.9192   -7.4466 H         1 UNK         0.3000 
    116 H116       30.0619    2.8245   -6.9989 H         1 UNK         0.0850 
    117 H117       30.6251    5.1590   -7.6047 H         1 UNK         0.0810 
    118 H118       28.9613    5.0442   -7.0519 H         1 UNK         0.0810 
    119 H119       29.3134    5.2088   -8.7723 H         1 UNK         0.0810 
    120 H120       29.4146    2.9586  -10.4853 H         1 UNK         0.3040 
    121 H121       32.1501    2.7392  -11.3529 H         1 UNK         0.0766 
    122 H122       30.3432    3.6008  -12.8258 H         1 UNK         0.0812 
    123 H123       29.5332    2.0348  -12.7953 H         1 UNK         0.0812 
    124 H124       31.1068    2.2020  -13.5630 H         1 UNK         0.0812 
    125 H125       29.8120    0.3763  -10.2667 H         1 UNK         0.3205 
    126 H126       31.2470   -1.9802  -11.2729 H         1 UNK         0.0754 
    127 H127       29.3931   -3.2009  -10.1544 H         1 UNK         0.0769 
    128 H128       28.7490   -1.9370  -11.1879 H         1 UNK         0.0769 
    129 H129       28.8011   -1.7078   -9.4395 H         1 UNK         0.0769 
    130 H130       33.1653   -0.7171   -9.9706 H         1 UNK         0.2981 
    131 H131       33.6606   -2.2647   -7.5774 H         1 UNK         0.0541 
    132 H132       35.9468   -1.4440   -6.5902 H         1 UNK         0.3459 
    133 H133       37.1597   -1.2996   -7.8393 H         1 UNK         0.3459 
    134 H134       32.4100    0.2072   -7.1261 H         1 UNK         0.0612 
    135 H135       34.0660    0.6798   -7.0418 H         1 UNK         0.0612 
    136 H136       31.0875   -0.6317   -5.4704 H         1 UNK         0.0624 
    137 H137       31.6144   -2.2938   -5.5481 H         1 UNK         0.0624 
@<TRIPOS>BOND
     1    1    2 1    
     2    1   72 1    
     3    1   73 1    
     4    1   74 1    
     5    2    3 2    
     6    2    4 am   BACKBONE|DICT|INTERRES
     7    4    5 1    
     8    4   75 1    
     9    5    6 1    
    10    5   35 1    
    11    5   76 1    
    12    6    7 1    
    13    6   77 1    
    14    6   78 1    
    15    7    8 1    
    16    8    9 1    
    17    8   79 1    
    18    8   80 1    
    19    9   10 ar   
    20    9   14 ar   
    21   10   11 ar   
    22   10   81 1    
    23   11   12 ar   
    24   11   71 1    
    25   12   13 ar   
    26   12   82 1    
    27   13   14 ar   
    28   13   15 1    
    29   14   83 1    
    30   15   16 1    
    31   15   84 1    
    32   15   85 1    
    33   16   17 1    
    34   17   18 1    
    35   17   86 1    
    36   17   87 1    
    37   18   19 1    
    38   18   37 1    
    39   18   88 1    
    40   19   20 am   BACKBONE|DICT|INTERRES
    41   19   89 1    
    42   20   21 2    
    43   20   22 1    
    44   22   23 1    
    45   22   24 1    
    46   22   90 1    
    47   23   91 1    
    48   23   92 1    
    49   23   93 1    
    50   24   25 am   BACKBONE|DICT|INTERRES
    51   24   94 1    
    52   25   26 2    
    53   25   27 1    
    54   27   28 1    
    55   27   29 1    
    56   27   95 1    
    57   28   96 1    
    58   28   97 1    
    59   28   98 1    
    60   29   30 am   BACKBONE|DICT|INTERRES
    61   29   99 1    
    62   30   31 2    
    63   30   32 1    
    64   32   33 1    
    65   32   34 1    
    66   32  100 1    
    67   33  101 1    
    68   33  102 1    
    69   33  103 1    
    70   34   35 am   BACKBONE|DICT|INTERRES
    71   34  104 1    
    72   35   36 2    
    73   37   38 2    
    74   37   39 am   BACKBONE|DICT|INTERRES
    75   39   40 1    
    76   39  105 1    
    77   40   41 1    
    78   40   42 1    
    79   40  106 1    
    80   41  107 1    
    81   41  108 1    
    82   41  109 1    
    83   42   43 2    
    84   42   44 am   BACKBONE|DICT|INTERRES
    85   44   45 1    
    86   44  110 1    
    87   45   46 1    
    88   45   47 1    
    89   45  111 1    
    90   46  112 1    
    91   46  113 1    
    92   46  114 1    
    93   47   48 2    
    94   47   49 am   BACKBONE|DICT|INTERRES
    95   49   50 1    
    96   49  115 1    
    97   50   51 1    
    98   50   52 1    
    99   50  116 1    
   100   51  117 1    
   101   51  118 1    
   102   51  119 1    
   103   52   53 2    
   104   52   54 am   BACKBONE|DICT|INTERRES
   105   54   55 1    
   106   54  120 1    
   107   55   56 1    
   108   55   57 1    
   109   55  121 1    
   110   56  122 1    
   111   56  123 1    
   112   56  124 1    
   113   57   58 2    
   114   57   59 am   BACKBONE|DICT|INTERRES
   115   59   60 1    
   116   59  125 1    
   117   60   61 1    
   118   60   62 1    
   119   60  126 1    
   120   61  127 1    
   121   61  128 1    
   122   61  129 1    
   123   62   63 2    
   124   62   64 am   BACKBONE|DICT|INTERRES
   125   64   65 1    
   126   64  130 1    
   127   65   66 1    
   128   65   69 1    
   129   65  131 1    
   130   66   67 am   BACKBONE|DICT|INTERRES
   131   66   68 2    
   132   67  132 1    
   133   67  133 1    
   134   69   70 1    
   135   69  134 1    
   136   69  135 1    
   137   70   71 1    
   138   71  136 1    
   139   71  137 1    
@<TRIPOS>SUBSTRUCTURE
     1 UNK         1 GROUP             0       ****    0 ROOT    
