@<TRIPOS>MOLECULE
3R137
137   139    1
SMALL
USER_CHARGES


@<TRIPOS>ATOM
      1 CA         29.1803   -1.2120    3.8950 C.3       0 UNK        -0.2020 
      2 C          29.1657   -1.1633    2.3743 C.2       0 UNK         0.4855 
      3 O          29.3245   -0.0882    1.7952 O.2       0 UNK        -0.5197 
      4 N          28.9863   -2.3197    1.7239 N.am      1 UNK        -0.4892 
      5 CA         28.8900   -2.4533    0.2665 C.3       1 UNK         0.0835 
      6 C6         29.0667   -3.9257   -0.1820 C.3       12 UNK        -0.0855 
      7 S7         30.8384   -4.3684   -0.1797 S.3       12 UNK        -0.2931 
      8 C8         31.2334   -4.5439   -1.9562 C.3       12 UNK         0.0378 
      9 C9         30.6345   -3.4466   -2.8309 C.ar      12 UNK        -0.0802 
     10 C10        31.0262   -2.1115   -2.6754 C.ar      12 UNK        -0.0944 
     11 C11        30.4579   -1.1092   -3.4695 C.ar      12 UNK        -0.0787 
     12 C12        29.5053   -1.4551   -4.4304 C.ar      12 UNK        -0.0862 
     13 C13        29.1294   -2.7863   -4.6159 C.ar      12 UNK        -0.0733 
     14 C14        29.6896   -3.7782   -3.8086 C.ar      12 UNK        -0.0832 
     15 C15        28.1432   -3.1382   -5.7147 C.3       12 UNK         0.0240 
     16 S16        28.9537   -3.0285   -7.3350 S.3       12 UNK        -0.2522 
     17 C17        27.5410   -2.9152   -8.4885 C.3       12 UNK        -0.0967 
     18 CA         26.6871   -1.6138   -8.4475 C.3       5 UNK         0.0660 
     19 N          25.5256   -1.7810   -7.5626 N.am      5 UNK        -0.4015 
     20 C          24.4753   -0.9609   -7.4373 C.2       4 UNK         0.4946 
     21 O          24.3883    0.1217   -8.0168 O.2       4 UNK        -0.5353 
     22 CA         23.3471   -1.3954   -6.4822 C.3       4 UNK         0.0277 
     23 CB         22.3355   -2.3018   -7.2092 C.3       4 UNK        -0.1981 
     24 N          23.7938   -1.9981   -5.2142 N.am      4 UNK        -0.4209 
     25 C          24.4436   -3.1504   -4.9951 C.2       3 UNK         0.4942 
     26 O          24.8256   -3.9003   -5.8953 O.2       3 UNK        -0.5208 
     27 CA         24.7794   -3.4755   -3.5256 C.3       3 UNK         0.0250 
     28 CB         25.3459   -4.8964   -3.3449 C.3       3 UNK        -0.1990 
     29 N          25.7311   -2.5134   -2.9632 N.am      3 UNK        -0.4232 
     30 C          25.4359   -1.2630   -2.5825 C.2       2 UNK         0.4993 
     31 O          24.3026   -0.7839   -2.6621 O.2       2 UNK        -0.5286 
     32 CA         26.6031   -0.3967   -2.0734 C.3       2 UNK         0.0209 
     33 CB         26.1350    0.7892   -1.2032 C.3       2 UNK        -0.1931 
     34 N          27.6675   -1.1529   -1.3994 N.am      2 UNK        -0.4546 
     35 C          27.5717   -1.8531   -0.2589 C.2       1 UNK         0.5154 
     36 O          26.5213   -2.0419    0.3596 O.2       1 UNK        -0.5181 
     37 C          27.5016   -0.3155   -8.2099 C.2       5 UNK         0.5014 
     38 O          28.2481    0.1063   -9.0970 O.2       5 UNK        -0.5248 
     39 N          27.3095    0.3299   -7.0482 N.am      6 UNK        -0.4434 
     40 CA         27.8288    1.6611   -6.7247 C.3       6 UNK         0.0363 
     41 CB         27.5180    2.0008   -5.2589 C.3       6 UNK        -0.1936 
     42 C          27.2980    2.7681   -7.6539 C.2       6 UNK         0.5081 
     43 O          27.9958    3.7624   -7.8453 O.2       6 UNK        -0.5248 
     44 N          26.1220    2.5658   -8.2705 N.am      7 UNK        -0.4718 
     45 CA         25.5712    3.4482   -9.3071 C.3       7 UNK         0.0273 
     46 CB         24.1251    3.0312   -9.6172 C.3       7 UNK        -0.1935 
     47 C          26.4136    3.4714  -10.5981 C.2       7 UNK         0.5018 
     48 O          26.3976    4.4766  -11.3088 O.2       7 UNK        -0.5186 
     49 N          27.1511    2.3828  -10.8586 N.am      8 UNK        -0.4240 
     50 CA         28.1386    2.2655  -11.9335 C.3       8 UNK         0.0235 
     51 CB         28.0084    0.8664  -12.5629 C.3       8 UNK        -0.2000 
     52 C          29.5757    2.4995  -11.4255 C.2       8 UNK         0.4941 
     53 O          30.5107    2.3820  -12.2182 O.2       8 UNK        -0.5273 
     54 N          29.7335    2.7935  -10.1232 N.am      9 UNK        -0.4262 
     55 CA         30.9874    2.9283   -9.3715 C.3       9 UNK         0.0264 
     56 CB         31.7675    4.1789   -9.8290 C.3       9 UNK        -0.1955 
     57 C          31.8494    1.6491   -9.3816 C.2       9 UNK         0.5031 
     58 O          33.0757    1.7379   -9.2992 O.2       9 UNK        -0.5390 
     59 N          31.2079    0.4750   -9.4667 N.am      10 UNK        -0.4204 
     60 CA         31.8619   -0.8269   -9.6324 C.3       10 UNK         0.0237 
     61 CB         30.9373   -1.7363  -10.4618 C.3       10 UNK        -0.1985 
     62 C          32.3006   -1.4747   -8.3016 C.2       10 UNK         0.4970 
     63 O          32.3312   -2.7025   -8.2077 O.2       10 UNK        -0.4914 
     64 N          32.6471   -0.6517   -7.3033 N.am      11 UNK        -0.4285 
     65 CA         33.0795   -1.0714   -5.9593 C.3       11 UNK         0.1007 
     66 C          34.4220   -1.8593   -5.9112 C.2       11 UNK         0.5703 
     67 N          35.2661   -1.8004   -6.9351 N.am      11 UNK        -0.7361 
     68 O          34.7027   -2.5346   -4.9240 O.2       11 UNK        -0.4986 
     69 C69        33.1329    0.1268   -4.9734 C.3       12 UNK        -0.0947 
     70 S70        31.5596    1.0415   -4.8437 S.3       12 UNK        -0.2240 
     71 C71        30.8712    0.3471   -3.3050 C.3       12 UNK         0.0194 
     72 H72        30.1304   -0.8356    4.2733 H         1 UNK         0.0906 
     73 H73        28.3822   -0.5888    4.2975 H         1 UNK         0.0906 
     74 H74        29.0426   -2.2250    4.2727 H         1 UNK         0.0906 
     75 H75        28.8472   -3.1701    2.2508 H         1 UNK         0.3140 
     76 H76        29.7009   -1.8589   -0.1608 H         1 UNK         0.1085 
     77 H77        28.5272   -4.6033    0.4822 H         1 UNK         0.0836 
     78 H78        28.6482   -4.1045   -1.1733 H         1 UNK         0.0836 
     79 H79        32.3175   -4.5433   -2.0777 H         1 UNK         0.0731 
     80 H80        30.8933   -5.5265   -2.2868 H         1 UNK         0.0731 
     81 H81        31.7680   -1.8571   -1.9303 H         1 UNK         0.1312 
     82 H82        29.0878   -0.6907   -5.0695 H         1 UNK         0.1406 
     83 H83        29.3995   -4.8105   -3.9518 H         1 UNK         0.1631 
     84 H84        27.3069   -2.4440   -5.6634 H         1 UNK         0.0717 
     85 H85        27.7350   -4.1407   -5.5819 H         1 UNK         0.0717 
     86 H86        27.9584   -3.0200   -9.4909 H         1 UNK         0.0934 
     87 H87        26.9133   -3.7990   -8.3601 H         1 UNK         0.0934 
     88 H88        26.2585   -1.4931   -9.4448 H         1 UNK         0.0739 
     89 H89        25.4665   -2.6597   -7.0504 H         1 UNK         0.3093 
     90 H90        22.8198   -0.4828   -6.1991 H         1 UNK         0.0818 
     91 H91        21.4864   -2.5404   -6.5688 H         1 UNK         0.0819 
     92 H92        21.9408   -1.8087   -8.0987 H         1 UNK         0.0819 
     93 H93        22.7847   -3.2411   -7.5332 H         1 UNK         0.0819 
     94 H94        23.6237   -1.4305   -4.3867 H         1 UNK         0.3041 
     95 H95        23.8467   -3.4181   -2.9600 H         1 UNK         0.0784 
     96 H96        24.6584   -5.6438   -3.7436 H         1 UNK         0.0793 
     97 H97        26.2992   -5.0256   -3.8573 H         1 UNK         0.0793 
     98 H98        25.4988   -5.1299   -2.2910 H         1 UNK         0.0793 
     99 H99        26.6880   -2.8219   -2.8772 H         1 UNK         0.3024 
    100 H100       27.0574    0.0233   -2.9696 H         1 UNK         0.1171 
    101 H101       25.4585    1.4410   -1.7577 H         1 UNK         0.0786 
    102 H102       26.9773    1.4008   -0.8798 H         1 UNK         0.0786 
    103 H103       25.6035    0.4526   -0.3125 H         1 UNK         0.0786 
    104 H104       28.5766   -1.0972   -1.8393 H         1 UNK         0.2977 
    105 H105       26.6514   -0.0693   -6.3974 H         1 UNK         0.3127 
    106 H106       28.9141    1.6313   -6.8452 H         1 UNK         0.0770 
    107 H107       26.4518    1.9305   -5.0400 H         1 UNK         0.0814 
    108 H108       27.8328    3.0177   -5.0192 H         1 UNK         0.0814 
    109 H109       28.0536    1.3420   -4.5791 H         1 UNK         0.0814 
    110 H110       25.5950    1.7188   -8.0733 H         1 UNK         0.2983 
    111 H111       25.5572    4.4652   -8.9087 H         1 UNK         0.0947 
    112 H112       23.6731    3.7021  -10.3490 H         1 UNK         0.0806 
    113 H113       23.5027    3.0601   -8.7227 H         1 UNK         0.0806 
    114 H114       24.0757    2.0210  -10.0260 H         1 UNK         0.0806 
    115 H115       27.1208    1.6096  -10.2046 H         1 UNK         0.3000 
    116 H116       27.9423    3.0097  -12.7082 H         1 UNK         0.0850 
    117 H117       28.6899    0.7504  -13.4066 H         1 UNK         0.0810 
    118 H118       26.9997    0.6927  -12.9379 H         1 UNK         0.0810 
    119 H119       28.2409    0.0774  -11.8465 H         1 UNK         0.0810 
    120 H120       28.8967    2.9196   -9.5668 H         1 UNK         0.3040 
    121 H121       30.7003    3.0845   -8.3307 H         1 UNK         0.0766 
    122 H122       32.6256    4.3644   -9.1818 H         1 UNK         0.0812 
    123 H123       31.1411    5.0702   -9.7963 H         1 UNK         0.0812 
    124 H124       32.1455    4.0703  -10.8460 H         1 UNK         0.0812 
    125 H125       30.1910    0.4673   -9.4573 H         1 UNK         0.3205 
    126 H126       32.7748   -0.6851  -10.2147 H         1 UNK         0.0754 
    127 H127       31.4056   -2.6990  -10.6700 H         1 UNK         0.0769 
    128 H128       30.6946   -1.2819  -11.4228 H         1 UNK         0.0769 
    129 H129       30.0017   -1.9313   -9.9408 H         1 UNK         0.0769 
    130 H130       32.6392    0.3428   -7.4781 H         1 UNK         0.2981 
    131 H131       32.3190   -1.7646   -5.5952 H         1 UNK         0.0541 
    132 H132       35.0466   -1.2467   -7.7472 H         1 UNK         0.3459 
    133 H133       36.1308   -2.3163   -6.8925 H         1 UNK         0.3459 
    134 H134       33.9016    0.8355   -5.2867 H         1 UNK         0.0612 
    135 H135       33.4238   -0.2091   -3.9762 H         1 UNK         0.0612 
    136 H136       31.5983    0.4625   -2.4997 H         1 UNK         0.0624 
    137 H137       29.9981    0.9331   -3.0159 H         1 UNK         0.0624 
@<TRIPOS>BOND
     1    1    2 1    
     2    1   72 1    
     3    1   73 1    
     4    1   74 1    
     5    2    3 2    
     6    2    4 am   BACKBONE|DICT|INTERRES
     7    4    5 1    
     8    4   75 1    
     9    5    6 1    
    10    5   35 1    
    11    5   76 1    
    12    6    7 1    
    13    6   77 1    
    14    6   78 1    
    15    7    8 1    
    16    8    9 1    
    17    8   79 1    
    18    8   80 1    
    19    9   10 ar   
    20    9   14 ar   
    21   10   11 ar   
    22   10   81 1    
    23   11   12 ar   
    24   11   71 1    
    25   12   13 ar   
    26   12   82 1    
    27   13   14 ar   
    28   13   15 1    
    29   14   83 1    
    30   15   16 1    
    31   15   84 1    
    32   15   85 1    
    33   16   17 1    
    34   17   18 1    
    35   17   86 1    
    36   17   87 1    
    37   18   19 1    
    38   18   37 1    
    39   18   88 1    
    40   19   20 am   BACKBONE|DICT|INTERRES
    41   19   89 1    
    42   20   21 2    
    43   20   22 1    
    44   22   23 1    
    45   22   24 1    
    46   22   90 1    
    47   23   91 1    
    48   23   92 1    
    49   23   93 1    
    50   24   25 am   BACKBONE|DICT|INTERRES
    51   24   94 1    
    52   25   26 2    
    53   25   27 1    
    54   27   28 1    
    55   27   29 1    
    56   27   95 1    
    57   28   96 1    
    58   28   97 1    
    59   28   98 1    
    60   29   30 am   BACKBONE|DICT|INTERRES
    61   29   99 1    
    62   30   31 2    
    63   30   32 1    
    64   32   33 1    
    65   32   34 1    
    66   32  100 1    
    67   33  101 1    
    68   33  102 1    
    69   33  103 1    
    70   34   35 am   BACKBONE|DICT|INTERRES
    71   34  104 1    
    72   35   36 2    
    73   37   38 2    
    74   37   39 am   BACKBONE|DICT|INTERRES
    75   39   40 1    
    76   39  105 1    
    77   40   41 1    
    78   40   42 1    
    79   40  106 1    
    80   41  107 1    
    81   41  108 1    
    82   41  109 1    
    83   42   43 2    
    84   42   44 am   BACKBONE|DICT|INTERRES
    85   44   45 1    
    86   44  110 1    
    87   45   46 1    
    88   45   47 1    
    89   45  111 1    
    90   46  112 1    
    91   46  113 1    
    92   46  114 1    
    93   47   48 2    
    94   47   49 am   BACKBONE|DICT|INTERRES
    95   49   50 1    
    96   49  115 1    
    97   50   51 1    
    98   50   52 1    
    99   50  116 1    
   100   51  117 1    
   101   51  118 1    
   102   51  119 1    
   103   52   53 2    
   104   52   54 am   BACKBONE|DICT|INTERRES
   105   54   55 1    
   106   54  120 1    
   107   55   56 1    
   108   55   57 1    
   109   55  121 1    
   110   56  122 1    
   111   56  123 1    
   112   56  124 1    
   113   57   58 2    
   114   57   59 am   BACKBONE|DICT|INTERRES
   115   59   60 1    
   116   59  125 1    
   117   60   61 1    
   118   60   62 1    
   119   60  126 1    
   120   61  127 1    
   121   61  128 1    
   122   61  129 1    
   123   62   63 2    
   124   62   64 am   BACKBONE|DICT|INTERRES
   125   64   65 1    
   126   64  130 1    
   127   65   66 1    
   128   65   69 1    
   129   65  131 1    
   130   66   67 am   BACKBONE|DICT|INTERRES
   131   66   68 2    
   132   67  132 1    
   133   67  133 1    
   134   69   70 1    
   135   69  134 1    
   136   69  135 1    
   137   70   71 1    
   138   71  136 1    
   139   71  137 1    
@<TRIPOS>SUBSTRUCTURE
     1 UNK         1 GROUP             0       ****    0 ROOT    
