@<TRIPOS>MOLECULE
3R137
137   139    1
SMALL
USER_CHARGES


@<TRIPOS>ATOM
      1 CA         24.5088    1.8921    0.4306 C.3       0 UNK        -0.2020 
      2 C          25.0643    0.8273    1.3737 C.2       0 UNK         0.4855 
      3 O          24.8611    0.9314    2.5815 O.2       0 UNK        -0.5197 
      4 N          25.7754   -0.2039    0.8922 N.am      1 UNK        -0.4892 
      5 CA         26.0577   -0.5182   -0.5148 C.3       1 UNK         0.0835 
      6 C6         27.1351   -1.6268   -0.6248 C.3       12 UNK        -0.0855 
      7 S7         27.8959   -1.7553   -2.2781 S.3       12 UNK        -0.2931 
      8 C8         29.1734   -3.0022   -1.9225 C.3       12 UNK         0.0378 
      9 C9         30.2414   -3.0435   -3.0044 C.ar      12 UNK        -0.0802 
     10 C10        31.4269   -2.3180   -2.8470 C.ar      12 UNK        -0.0944 
     11 C11        32.4308   -2.3739   -3.8182 C.ar      12 UNK        -0.0787 
     12 C12        32.2469   -3.1813   -4.9430 C.ar      12 UNK        -0.0862 
     13 C13        31.0493   -3.8732   -5.1370 C.ar      12 UNK        -0.0733 
     14 C14        30.0557   -3.8169   -4.1538 C.ar      12 UNK        -0.0832 
     15 C15        30.8394   -4.6706   -6.4160 C.3       12 UNK         0.0240 
     16 S16        30.3356   -3.5983   -7.8046 S.3       12 UNK        -0.2522 
     17 C17        28.6022   -3.2135   -7.3656 C.3       12 UNK        -0.0967 
     18 CA         28.1314   -1.7333   -7.4590 C.3       5 UNK         0.0660 
     19 N          26.8387   -1.5975   -6.7750 N.am      5 UNK        -0.4015 
     20 C          26.1066   -0.5010   -6.5458 C.2       4 UNK         0.4946 
     21 O          26.4564    0.6361   -6.8601 O.2       4 UNK        -0.5353 
     22 CA         24.7572   -0.6832   -5.8289 C.3       4 UNK         0.0277 
     23 CB         23.5971   -0.6614   -6.8421 C.3       4 UNK        -0.1981 
     24 N          24.6624   -1.8456   -4.9293 N.am      4 UNK        -0.4209 
     25 C          24.6785   -3.1563   -5.2269 C.2       3 UNK         0.4942 
     26 O          24.8595   -3.5864   -6.3659 O.2       3 UNK        -0.5208 
     27 CA         24.5253   -4.1709   -4.0751 C.3       3 UNK         0.0250 
     28 CB         25.8494   -4.9208   -3.8473 C.3       3 UNK        -0.1990 
     29 N          24.1007   -3.5700   -2.8095 N.am      3 UNK        -0.4232 
     30 C          22.8782   -3.0837   -2.5503 C.2       2 UNK         0.4993 
     31 O          21.9201   -3.2002   -3.3147 O.2       2 UNK        -0.5286 
     32 CA         22.7022   -2.3010   -1.2329 C.3       2 UNK         0.0209 
     33 CB         22.0024   -3.1734   -0.1780 C.3       2 UNK        -0.1931 
     34 N          23.9523   -1.7718   -0.6670 N.am      2 UNK        -0.4546 
     35 C          24.7779   -0.9082   -1.2788 C.2       1 UNK         0.5154 
     36 O          24.5614   -0.4317   -2.3927 O.2       1 UNK        -0.5181 
     37 C          29.1880   -0.6806   -7.0427 C.2       5 UNK         0.5014 
     38 O          29.9092   -0.1839   -7.9119 O.2       5 UNK        -0.5248 
     39 N          29.2097   -0.2886   -5.7595 N.am      6 UNK        -0.4434 
     40 CA         30.0559    0.7863   -5.2273 C.3       6 UNK         0.0363 
     41 CB         29.8327    0.9211   -3.7137 C.3       6 UNK        -0.1936 
     42 C          29.8593    2.1594   -5.8961 C.2       6 UNK         0.5081 
     43 O          30.8120    2.9365   -5.9513 O.2       6 UNK        -0.5248 
     44 N          28.6442    2.4349   -6.3850 N.am      7 UNK        -0.4718 
     45 CA         28.2878    3.6649   -7.0907 C.3       7 UNK         0.0273 
     46 CB         27.0357    4.2761   -6.4400 C.3       7 UNK        -0.1935 
     47 C          28.0393    3.3925   -8.5796 C.2       7 UNK         0.5018 
     48 O          28.5185    4.1549   -9.4183 O.2       7 UNK        -0.5186 
     49 N          27.3007    2.3159   -8.8842 N.am      8 UNK        -0.4240 
     50 CA         26.8581    1.9540  -10.2326 C.3       8 UNK         0.0235 
     51 CB         25.7846    0.8568  -10.1411 C.3       8 UNK        -0.2000 
     52 C          27.9978    1.5125  -11.1623 C.2       8 UNK         0.4941 
     53 O          27.9530    1.8287  -12.3518 O.2       8 UNK        -0.5273 
     54 N          28.9874    0.7973  -10.6124 N.am      9 UNK        -0.4262 
     55 CA         30.1583    0.3024  -11.3402 C.3       9 UNK         0.0264 
     56 CB         30.2065   -1.2314  -11.2100 C.3       9 UNK        -0.1955 
     57 C          31.4650    0.9299  -10.8287 C.2       9 UNK         0.5031 
     58 O          32.5289    0.5622  -11.3281 O.2       9 UNK        -0.5390 
     59 N          31.3855    1.8185   -9.8240 N.am      10 UNK        -0.4204 
     60 CA         32.5059    2.4063   -9.0745 C.3       10 UNK         0.0237 
     61 CB         33.2785    3.4129   -9.9535 C.3       10 UNK        -0.1985 
     62 C          33.4167    1.3315   -8.4405 C.2       10 UNK         0.4970 
     63 O          34.6416    1.4530   -8.4951 O.2       10 UNK        -0.4914 
     64 N          32.7867    0.2781   -7.9032 N.am      11 UNK        -0.4285 
     65 CA         33.3917   -0.9781   -7.4336 C.3       11 UNK         0.1007 
     66 C          33.9154   -1.9209   -8.5606 C.2       11 UNK         0.5703 
     67 N          33.7650   -1.6113   -9.8425 N.am      11 UNK        -0.7361 
     68 O          34.4453   -2.9896   -8.2656 O.2       11 UNK        -0.4986 
     69 C69        34.4381   -0.8098   -6.2878 C.3       12 UNK        -0.0947 
     70 S70        33.7574   -0.1090   -4.7467 S.3       12 UNK        -0.2240 
     71 C71        33.7111   -1.5665   -3.6479 C.3       12 UNK         0.0194 
     72 H72        24.2293    2.7839    0.9913 H         1 UNK         0.0906 
     73 H73        23.6164    1.5284   -0.0777 H         1 UNK         0.0906 
     74 H74        25.2409    2.1969   -0.3158 H         1 UNK         0.0906 
     75 H75        26.1399   -0.8685    1.5604 H         1 UNK         0.3140 
     76 H76        26.4624    0.3808   -0.9839 H         1 UNK         0.1085 
     77 H77        27.9416   -1.4104    0.0783 H         1 UNK         0.0836 
     78 H78        26.7398   -2.6017   -0.3317 H         1 UNK         0.0836 
     79 H79        29.6388   -2.7867   -0.9593 H         1 UNK         0.0731 
     80 H80        28.7033   -3.9816   -1.8208 H         1 UNK         0.0731 
     81 H81        31.5662   -1.7065   -1.9659 H         1 UNK         0.1312 
     82 H82        33.0273   -3.2537   -5.6865 H         1 UNK         0.1406 
     83 H83        29.1365   -4.3719   -4.2798 H         1 UNK         0.1631 
     84 H84        31.7675   -5.1772   -6.6850 H         1 UNK         0.0717 
     85 H85        30.0966   -5.4561   -6.2685 H         1 UNK         0.0717 
     86 H86        27.9646   -3.8293   -8.0022 H         1 UNK         0.0934 
     87 H87        28.4200   -3.5798   -6.3564 H         1 UNK         0.0934 
     88 H88        27.9294   -1.5323   -8.5126 H         1 UNK         0.0739 
     89 H89        26.3736   -2.4708   -6.5447 H         1 UNK         0.3093 
     90 H90        24.6423    0.1887   -5.1828 H         1 UNK         0.0818 
     91 H91        22.6316   -0.7148   -6.3391 H         1 UNK         0.0819 
     92 H92        23.6078    0.2604   -7.4253 H         1 UNK         0.0819 
     93 H93        23.6545   -1.4905   -7.5480 H         1 UNK         0.0819 
     94 H94        24.5687   -1.5868   -3.9506 H         1 UNK         0.3041 
     95 H95        23.7670   -4.8948   -4.3810 H         1 UNK         0.0784 
     96 H96        26.1767   -5.4249   -4.7579 H         1 UNK         0.0793 
     97 H97        26.6490   -4.2447   -3.5445 H         1 UNK         0.0793 
     98 H98        25.7459   -5.6857   -3.0774 H         1 UNK         0.0793 
     99 H99        24.8167   -3.4402   -2.1103 H         1 UNK         0.3024 
    100 H100       22.0573   -1.4482   -1.4575 H         1 UNK         0.1171 
    101 H101       21.7796   -2.6040    0.7247 H         1 UNK         0.0786 
    102 H102       21.0545   -3.5594   -0.5560 H         1 UNK         0.0786 
    103 H103       22.6131   -4.0313    0.1064 H         1 UNK         0.0786 
    104 H104       24.1970   -2.0881    0.2608 H         1 UNK         0.2977 
    105 H105       28.5860   -0.7392   -5.1055 H         1 UNK         0.3127 
    106 H106       31.0896    0.4907   -5.4007 H         1 UNK         0.0770 
    107 H107       30.4515    1.7165   -3.2960 H         1 UNK         0.0814 
    108 H108       28.7940    1.1546   -3.4770 H         1 UNK         0.0814 
    109 H109       30.0993    0.0068   -3.1901 H         1 UNK         0.0814 
    110 H110       27.9234    1.7196   -6.3322 H         1 UNK         0.2983 
    111 H111       29.0952    4.3974   -7.0206 H         1 UNK         0.0947 
    112 H112       26.7341    5.1899   -6.9540 H         1 UNK         0.0806 
    113 H113       27.2216    4.5371   -5.3981 H         1 UNK         0.0806 
    114 H114       26.1877    3.5902   -6.4654 H         1 UNK         0.0806 
    115 H115       26.9500    1.7348   -8.1227 H         1 UNK         0.3000 
    116 H116       26.3991    2.8400  -10.6767 H         1 UNK         0.0850 
    117 H117       24.9350    1.1826   -9.5406 H         1 UNK         0.0810 
    118 H118       26.1769   -0.0583   -9.6967 H         1 UNK         0.0810 
    119 H119       25.4025    0.6010  -11.1303 H         1 UNK         0.0810 
    120 H120       28.9537    0.5718   -9.6241 H         1 UNK         0.3040 
    121 H121       30.0884    0.5498  -12.4013 H         1 UNK         0.0766 
    122 H122       29.2862   -1.6900  -11.5714 H         1 UNK         0.0812 
    123 H123       30.3548   -1.5466  -10.1768 H         1 UNK         0.0812 
    124 H124       31.0264   -1.6496  -11.7953 H         1 UNK         0.0812 
    125 H125       30.4634    2.0590   -9.4910 H         1 UNK         0.3205 
    126 H126       32.0678    2.9645   -8.2474 H         1 UNK         0.0754 
    127 H127       33.7868    2.9204  -10.7831 H         1 UNK         0.0769 
    128 H128       34.0376    3.9374   -9.3718 H         1 UNK         0.0769 
    129 H129       32.6116    4.1681  -10.3695 H         1 UNK         0.0769 
    130 H130       31.7709    0.2578   -7.9423 H         1 UNK         0.2981 
    131 H131       32.5384   -1.5143   -7.0249 H         1 UNK         0.0541 
    132 H132       34.1059   -2.2567  -10.5362 H         1 UNK         0.3459 
    133 H133       33.3397   -0.7405  -10.1423 H         1 UNK         0.3459 
    134 H134       35.2643   -0.1765   -6.6106 H         1 UNK         0.0612 
    135 H135       34.9005   -1.7665   -6.0430 H         1 UNK         0.0612 
    136 H136       33.7955   -1.2151   -2.6185 H         1 UNK         0.0624 
    137 H137       34.5814   -2.2018   -3.8170 H         1 UNK         0.0624 
@<TRIPOS>BOND
     1    1    2 1    
     2    1   72 1    
     3    1   73 1    
     4    1   74 1    
     5    2    3 2    
     6    2    4 am   BACKBONE|DICT|INTERRES
     7    4    5 1    
     8    4   75 1    
     9    5    6 1    
    10    5   35 1    
    11    5   76 1    
    12    6    7 1    
    13    6   77 1    
    14    6   78 1    
    15    7    8 1    
    16    8    9 1    
    17    8   79 1    
    18    8   80 1    
    19    9   10 ar   
    20    9   14 ar   
    21   10   11 ar   
    22   10   81 1    
    23   11   12 ar   
    24   11   71 1    
    25   12   13 ar   
    26   12   82 1    
    27   13   14 ar   
    28   13   15 1    
    29   14   83 1    
    30   15   16 1    
    31   15   84 1    
    32   15   85 1    
    33   16   17 1    
    34   17   18 1    
    35   17   86 1    
    36   17   87 1    
    37   18   19 1    
    38   18   37 1    
    39   18   88 1    
    40   19   20 am   BACKBONE|DICT|INTERRES
    41   19   89 1    
    42   20   21 2    
    43   20   22 1    
    44   22   23 1    
    45   22   24 1    
    46   22   90 1    
    47   23   91 1    
    48   23   92 1    
    49   23   93 1    
    50   24   25 am   BACKBONE|DICT|INTERRES
    51   24   94 1    
    52   25   26 2    
    53   25   27 1    
    54   27   28 1    
    55   27   29 1    
    56   27   95 1    
    57   28   96 1    
    58   28   97 1    
    59   28   98 1    
    60   29   30 am   BACKBONE|DICT|INTERRES
    61   29   99 1    
    62   30   31 2    
    63   30   32 1    
    64   32   33 1    
    65   32   34 1    
    66   32  100 1    
    67   33  101 1    
    68   33  102 1    
    69   33  103 1    
    70   34   35 am   BACKBONE|DICT|INTERRES
    71   34  104 1    
    72   35   36 2    
    73   37   38 2    
    74   37   39 am   BACKBONE|DICT|INTERRES
    75   39   40 1    
    76   39  105 1    
    77   40   41 1    
    78   40   42 1    
    79   40  106 1    
    80   41  107 1    
    81   41  108 1    
    82   41  109 1    
    83   42   43 2    
    84   42   44 am   BACKBONE|DICT|INTERRES
    85   44   45 1    
    86   44  110 1    
    87   45   46 1    
    88   45   47 1    
    89   45  111 1    
    90   46  112 1    
    91   46  113 1    
    92   46  114 1    
    93   47   48 2    
    94   47   49 am   BACKBONE|DICT|INTERRES
    95   49   50 1    
    96   49  115 1    
    97   50   51 1    
    98   50   52 1    
    99   50  116 1    
   100   51  117 1    
   101   51  118 1    
   102   51  119 1    
   103   52   53 2    
   104   52   54 am   BACKBONE|DICT|INTERRES
   105   54   55 1    
   106   54  120 1    
   107   55   56 1    
   108   55   57 1    
   109   55  121 1    
   110   56  122 1    
   111   56  123 1    
   112   56  124 1    
   113   57   58 2    
   114   57   59 am   BACKBONE|DICT|INTERRES
   115   59   60 1    
   116   59  125 1    
   117   60   61 1    
   118   60   62 1    
   119   60  126 1    
   120   61  127 1    
   121   61  128 1    
   122   61  129 1    
   123   62   63 2    
   124   62   64 am   BACKBONE|DICT|INTERRES
   125   64   65 1    
   126   64  130 1    
   127   65   66 1    
   128   65   69 1    
   129   65  131 1    
   130   66   67 am   BACKBONE|DICT|INTERRES
   131   66   68 2    
   132   67  132 1    
   133   67  133 1    
   134   69   70 1    
   135   69  134 1    
   136   69  135 1    
   137   70   71 1    
   138   71  136 1    
   139   71  137 1    
@<TRIPOS>SUBSTRUCTURE
     1 UNK         1 GROUP             0       ****    0 ROOT    
