@<TRIPOS>MOLECULE
3R137
137   139    1
SMALL
USER_CHARGES


@<TRIPOS>ATOM
      1 CA         26.2819   -6.6717    1.4442 C.3       0 UNK        -0.2020 
      2 C          25.7500   -5.2488    1.3652 C.2       0 UNK         0.4855 
      3 O          24.5443   -5.0372    1.4960 O.2       0 UNK        -0.5197 
      4 N          26.6405   -4.2710    1.1542 N.am      1 UNK        -0.4892 
      5 CA         26.3170   -2.8445    1.0158 C.3       1 UNK         0.0835 
      6 C6         27.5676   -1.9431    1.1969 C.3       12 UNK        -0.0855 
      7 S7         29.0324   -2.4873    0.2473 S.3       12 UNK        -0.2931 
      8 C8         28.9894   -1.3354   -1.1571 C.3       12 UNK         0.0378 
      9 C9         30.0145   -1.7182   -2.2127 C.ar      12 UNK        -0.0802 
     10 C10        31.1618   -0.9432   -2.4098 C.ar      12 UNK        -0.0944 
     11 C11        32.0886   -1.2906   -3.3980 C.ar      12 UNK        -0.0787 
     12 C12        31.8651   -2.4241   -4.1859 C.ar      12 UNK        -0.0862 
     13 C13        30.7281   -3.2124   -3.9894 C.ar      12 UNK        -0.0733 
     14 C14        29.8045   -2.8504   -3.0044 C.ar      12 UNK        -0.0832 
     15 C15        30.5150   -4.4701   -4.8209 C.3       12 UNK         0.0240 
     16 S16        29.9356   -4.1024   -6.5071 S.3       12 UNK        -0.2522 
     17 C17        28.2608   -3.4576   -6.1850 C.3       12 UNK        -0.0967 
     18 CA         27.8983   -2.2465   -7.0735 C.3       5 UNK         0.0660 
     19 N          26.4712   -1.9454   -7.0071 N.am      5 UNK        -0.4015 
     20 C          25.8232   -1.2071   -7.9159 C.2       4 UNK         0.4946 
     21 O          26.3476   -0.7811   -8.9441 O.2       4 UNK        -0.5353 
     22 CA         24.3589   -0.8505   -7.6085 C.3       4 UNK         0.0277 
     23 CB         23.4148   -1.9372   -8.1454 C.3       4 UNK        -0.1981 
     24 N          24.1132   -0.6422   -6.1776 N.am      4 UNK        -0.4209 
     25 C          24.6522    0.3557   -5.4617 C.2       3 UNK         0.4942 
     26 O          25.3660    1.2314   -5.9471 O.2       3 UNK        -0.5208 
     27 CA         24.3939    0.3536   -3.9463 C.3       3 UNK         0.0250 
     28 CB         23.0916    1.1016   -3.6216 C.3       3 UNK        -0.1990 
     29 N          24.3550   -0.9865   -3.3511 N.am      3 UNK        -0.4232 
     30 C          25.3703   -1.8616   -3.3553 C.2       2 UNK         0.4993 
     31 O          26.4545   -1.6519   -3.9047 O.2       2 UNK        -0.5286 
     32 CA         25.1230   -3.2070   -2.6500 C.3       2 UNK         0.0209 
     33 CB         25.5761   -4.3858   -3.5293 C.3       2 UNK        -0.1931 
     34 N          25.7939   -3.2966   -1.3509 N.am      2 UNK        -0.4546 
     35 C          25.5475   -2.5204   -0.2843 C.2       1 UNK         0.5154 
     36 O          24.7263   -1.6022   -0.2820 O.2       1 UNK        -0.5181 
     37 C          28.7231   -0.9812   -6.7567 C.2       5 UNK         0.5014 
     38 O          29.6171   -0.6327   -7.5282 O.2       5 UNK        -0.5248 
     39 N          28.3695   -0.2938   -5.6609 N.am      6 UNK        -0.4434 
     40 CA         29.0390    0.9182   -5.1869 C.3       6 UNK         0.0363 
     41 CB         28.4307    1.3506   -3.8441 C.3       6 UNK        -0.1936 
     42 C          29.0028    2.0933   -6.1794 C.2       6 UNK         0.5081 
     43 O          30.0318    2.7383   -6.3812 O.2       6 UNK        -0.5248 
     44 N          27.8222    2.3750   -6.7470 N.am      7 UNK        -0.4718 
     45 CA         27.5788    3.5520   -7.5805 C.3       7 UNK         0.0273 
     46 CB         26.2382    4.1960   -7.1845 C.3       7 UNK        -0.1935 
     47 C          27.6073    3.2316   -9.0798 C.2       7 UNK         0.5018 
     48 O          28.3785    3.8590   -9.8062 O.2       7 UNK        -0.5186 
     49 N          26.7387    2.3131   -9.5304 N.am      8 UNK        -0.4240 
     50 CA         26.4923    2.0712  -10.9568 C.3       8 UNK         0.0235 
     51 CB         25.1209    1.4071  -11.1708 C.3       8 UNK        -0.2000 
     52 C          27.6222    1.2837  -11.6353 C.2       8 UNK         0.4941 
     53 O          28.0977    1.7113  -12.6885 O.2       8 UNK        -0.5273 
     54 N          28.0476    0.1681  -11.0246 N.am      9 UNK        -0.4262 
     55 CA         29.2106   -0.6056  -11.4802 C.3       9 UNK         0.0264 
     56 CB         29.1877   -2.0142  -10.8678 C.3       9 UNK        -0.1955 
     57 C          30.5373    0.1084  -11.1606 C.2       9 UNK         0.5031 
     58 O          31.4637    0.0391  -11.9699 O.2       9 UNK        -0.5390 
     59 N          30.5652    0.7980  -10.0103 N.am      10 UNK        -0.4204 
     60 CA         31.6417    1.5974   -9.4194 C.3       10 UNK         0.0237 
     61 CB         32.2160    2.6304  -10.4103 C.3       10 UNK        -0.1985 
     62 C          32.7468    0.7424   -8.7786 C.2       10 UNK         0.4970 
     63 O          33.0574   -0.3533   -9.2507 O.2       10 UNK        -0.4914 
     64 N          33.3395    1.2893   -7.7115 N.am      11 UNK        -0.4285 
     65 CA         34.4321    0.6723   -6.9408 C.3       11 UNK         0.1007 
     66 C          35.8218    0.7035   -7.6421 C.2       11 UNK         0.5703 
     67 N          36.0011    1.4256   -8.7423 N.am      11 UNK        -0.7361 
     68 O          36.7556    0.0514   -7.1808 O.2       11 UNK        -0.4986 
     69 C69        34.5180    1.2631   -5.5079 C.3       12 UNK        -0.0947 
     70 S70        32.9641    1.0417   -4.5799 S.3       12 UNK        -0.2240 
     71 C71        33.3376   -0.4507   -3.6118 C.3       12 UNK         0.0194 
     72 H72        27.3637   -6.7110    1.3171 H         1 UNK         0.0906 
     73 H73        26.0385   -7.1100    2.4117 H         1 UNK         0.0906 
     74 H74        25.8268   -7.2859    0.6676 H         1 UNK         0.0906 
     75 H75        27.6226   -4.4941    1.0600 H         1 UNK         0.3140 
     76 H76        25.6290   -2.5971    1.8279 H         1 UNK         0.1085 
     77 H77        27.3389   -0.8988    0.9731 H         1 UNK         0.0836 
     78 H78        27.8540   -1.9505    2.2498 H         1 UNK         0.0836 
     79 H79        29.1636   -0.3205   -0.7964 H         1 UNK         0.0731 
     80 H80        27.9959   -1.3401   -1.6062 H         1 UNK         0.0731 
     81 H81        31.3322   -0.0650   -1.8022 H         1 UNK         0.1312 
     82 H82        32.5781   -2.6985   -4.9516 H         1 UNK         0.1406 
     83 H83        28.9200   -3.4513   -2.8435 H         1 UNK         0.1631 
     84 H84        29.8048   -5.1409   -4.3347 H         1 UNK         0.0717 
     85 H85        31.4546   -5.0207   -4.8865 H         1 UNK         0.0717 
     86 H86        27.5623   -4.2753   -6.3700 H         1 UNK         0.0934 
     87 H87        28.1468   -3.2034   -5.1333 H         1 UNK         0.0934 
     88 H88        28.1125   -2.5329   -8.1035 H         1 UNK         0.0739 
     89 H89        25.9956   -2.1964   -6.1528 H         1 UNK         0.3093 
     90 H90        24.1336    0.0839   -8.1273 H         1 UNK         0.0818 
     91 H91        22.3699   -1.6579   -8.0092 H         1 UNK         0.0819 
     92 H92        23.5694   -2.0925   -9.2143 H         1 UNK         0.0819 
     93 H93        23.5746   -2.8960   -7.6505 H         1 UNK         0.0819 
     94 H94        23.5235   -1.3121   -5.7056 H         1 UNK         0.3041 
     95 H95        25.2181    0.8917   -3.4749 H         1 UNK         0.0784 
     96 H96        23.1083    2.1109   -4.0359 H         1 UNK         0.0793 
     97 H97        22.2183    0.5943   -4.0336 H         1 UNK         0.0793 
     98 H98        22.9479    1.1986   -2.5452 H         1 UNK         0.0793 
     99 H99        23.5157   -1.2254   -2.8418 H         1 UNK         0.3024 
    100 H100       24.0499   -3.3149   -2.4771 H         1 UNK         0.1171 
    101 H101       25.2817   -5.3401   -3.0920 H         1 UNK         0.0786 
    102 H102       25.1251   -4.3340   -4.5211 H         1 UNK         0.0786 
    103 H103       26.6579   -4.4014   -3.6616 H         1 UNK         0.0786 
    104 H104       26.4897   -4.0200   -1.2476 H         1 UNK         0.2977 
    105 H105       27.6332   -0.6701   -5.0687 H         1 UNK         0.3127 
    106 H106       30.0840    0.6536   -5.0182 H         1 UNK         0.0770 
    107 H107       27.4038    1.6972   -3.9591 H         1 UNK         0.0814 
    108 H108       29.0040    2.1676   -3.4045 H         1 UNK         0.0814 
    109 H109       28.4262    0.5331   -3.1275 H         1 UNK         0.0814 
    110 H110       27.0079    1.8163   -6.4948 H         1 UNK         0.2983 
    111 H111       28.3546    4.2991   -7.3967 H         1 UNK         0.0947 
    112 H112       26.0490    5.0951   -7.7726 H         1 UNK         0.0806 
    113 H113       26.2377    4.4901   -6.1349 H         1 UNK         0.0806 
    114 H114       25.3948    3.5227   -7.3398 H         1 UNK         0.0806 
    115 H115       26.1786    1.7950   -8.8687 H         1 UNK         0.3000 
    116 H116       26.4469    3.0462  -11.4481 H         1 UNK         0.0850 
    117 H117       24.8988    1.3211  -12.2352 H         1 UNK         0.0810 
    118 H118       24.3205    1.9953  -10.7218 H         1 UNK         0.0810 
    119 H119       25.0724    0.4025  -10.7546 H         1 UNK         0.0810 
    120 H120       27.5529   -0.1546  -10.1933 H         1 UNK         0.3040 
    121 H121       29.1386   -0.7140  -12.5647 H         1 UNK         0.0766 
    122 H122       29.4503   -1.9961   -9.8116 H         1 UNK         0.0812 
    123 H123       29.9150   -2.6583  -11.3632 H         1 UNK         0.0812 
    124 H124       28.2097   -2.4849  -10.9701 H         1 UNK         0.0812 
    125 H125       29.7751    0.6585   -9.3929 H         1 UNK         0.3205 
    126 H126       31.1576    2.1557   -8.6190 H         1 UNK         0.0754 
    127 H127       32.8807    3.3296   -9.9020 H         1 UNK         0.0769 
    128 H128       31.4219    3.2174  -10.8726 H         1 UNK         0.0769 
    129 H129       32.7936    2.1582  -11.2055 H         1 UNK         0.0769 
    130 H130       33.0171    2.1846   -7.3744 H         1 UNK         0.2981 
    131 H131       34.1888   -0.3869   -6.8352 H         1 UNK         0.0541 
    132 H132       35.2420    1.9589   -9.1333 H         1 UNK         0.3459 
    133 H133       36.9057    1.4315   -9.1866 H         1 UNK         0.3459 
    134 H134       34.7375    2.3312   -5.5518 H         1 UNK         0.0612 
    135 H135       35.3355    0.8115   -4.9426 H         1 UNK         0.0612 
    136 H136       33.7654   -0.1597   -2.6515 H         1 UNK         0.0624 
    137 H137       34.0982   -1.0443   -4.1215 H         1 UNK         0.0624 
@<TRIPOS>BOND
     1    1    2 1    
     2    1   72 1    
     3    1   73 1    
     4    1   74 1    
     5    2    3 2    
     6    2    4 am   BACKBONE|DICT|INTERRES
     7    4    5 1    
     8    4   75 1    
     9    5    6 1    
    10    5   35 1    
    11    5   76 1    
    12    6    7 1    
    13    6   77 1    
    14    6   78 1    
    15    7    8 1    
    16    8    9 1    
    17    8   79 1    
    18    8   80 1    
    19    9   10 ar   
    20    9   14 ar   
    21   10   11 ar   
    22   10   81 1    
    23   11   12 ar   
    24   11   71 1    
    25   12   13 ar   
    26   12   82 1    
    27   13   14 ar   
    28   13   15 1    
    29   14   83 1    
    30   15   16 1    
    31   15   84 1    
    32   15   85 1    
    33   16   17 1    
    34   17   18 1    
    35   17   86 1    
    36   17   87 1    
    37   18   19 1    
    38   18   37 1    
    39   18   88 1    
    40   19   20 am   BACKBONE|DICT|INTERRES
    41   19   89 1    
    42   20   21 2    
    43   20   22 1    
    44   22   23 1    
    45   22   24 1    
    46   22   90 1    
    47   23   91 1    
    48   23   92 1    
    49   23   93 1    
    50   24   25 am   BACKBONE|DICT|INTERRES
    51   24   94 1    
    52   25   26 2    
    53   25   27 1    
    54   27   28 1    
    55   27   29 1    
    56   27   95 1    
    57   28   96 1    
    58   28   97 1    
    59   28   98 1    
    60   29   30 am   BACKBONE|DICT|INTERRES
    61   29   99 1    
    62   30   31 2    
    63   30   32 1    
    64   32   33 1    
    65   32   34 1    
    66   32  100 1    
    67   33  101 1    
    68   33  102 1    
    69   33  103 1    
    70   34   35 am   BACKBONE|DICT|INTERRES
    71   34  104 1    
    72   35   36 2    
    73   37   38 2    
    74   37   39 am   BACKBONE|DICT|INTERRES
    75   39   40 1    
    76   39  105 1    
    77   40   41 1    
    78   40   42 1    
    79   40  106 1    
    80   41  107 1    
    81   41  108 1    
    82   41  109 1    
    83   42   43 2    
    84   42   44 am   BACKBONE|DICT|INTERRES
    85   44   45 1    
    86   44  110 1    
    87   45   46 1    
    88   45   47 1    
    89   45  111 1    
    90   46  112 1    
    91   46  113 1    
    92   46  114 1    
    93   47   48 2    
    94   47   49 am   BACKBONE|DICT|INTERRES
    95   49   50 1    
    96   49  115 1    
    97   50   51 1    
    98   50   52 1    
    99   50  116 1    
   100   51  117 1    
   101   51  118 1    
   102   51  119 1    
   103   52   53 2    
   104   52   54 am   BACKBONE|DICT|INTERRES
   105   54   55 1    
   106   54  120 1    
   107   55   56 1    
   108   55   57 1    
   109   55  121 1    
   110   56  122 1    
   111   56  123 1    
   112   56  124 1    
   113   57   58 2    
   114   57   59 am   BACKBONE|DICT|INTERRES
   115   59   60 1    
   116   59  125 1    
   117   60   61 1    
   118   60   62 1    
   119   60  126 1    
   120   61  127 1    
   121   61  128 1    
   122   61  129 1    
   123   62   63 2    
   124   62   64 am   BACKBONE|DICT|INTERRES
   125   64   65 1    
   126   64  130 1    
   127   65   66 1    
   128   65   69 1    
   129   65  131 1    
   130   66   67 am   BACKBONE|DICT|INTERRES
   131   66   68 2    
   132   67  132 1    
   133   67  133 1    
   134   69   70 1    
   135   69  134 1    
   136   69  135 1    
   137   70   71 1    
   138   71  136 1    
   139   71  137 1    
@<TRIPOS>SUBSTRUCTURE
     1 UNK         1 GROUP             0       ****    0 ROOT    
