@<TRIPOS>MOLECULE
3R137
137   139    1
SMALL
USER_CHARGES


@<TRIPOS>ATOM
      1 CA         24.3348   -2.7666   -1.6255 C.3       0 UNK        -0.2020 
      2 C          25.3738   -3.8713   -1.4986 C.2       0 UNK         0.4855 
      3 O          25.0784   -4.9115   -0.9102 O.2       0 UNK        -0.5197 
      4 N          26.5725   -3.6327   -2.0476 N.am      1 UNK        -0.4892 
      5 CA         27.7215   -4.5370   -2.1833 C.3       1 UNK         0.0835 
      6 C6         28.1703   -5.2774   -0.8917 C.3       12 UNK        -0.0855 
      7 S7         28.3902   -4.1830    0.5597 S.3       12 UNK        -0.2931 
      8 C8         30.1790   -3.8429    0.5547 C.3       12 UNK         0.0378 
      9 C9         30.5402   -2.7721   -0.4633 C.ar      12 UNK        -0.0802 
     10 C10        30.9798   -3.1358   -1.7378 C.ar      12 UNK        -0.0944 
     11 C11        31.2817   -2.1585   -2.6889 C.ar      12 UNK        -0.0787 
     12 C12        31.1848   -0.8065   -2.3452 C.ar      12 UNK        -0.0862 
     13 C13        30.7513   -0.4289   -1.0716 C.ar      12 UNK        -0.0733 
     14 C14        30.4295   -1.4166   -0.1341 C.ar      12 UNK        -0.0832 
     15 C15        30.6257    1.0438   -0.7101 C.3       12 UNK         0.0240 
     16 S16        28.8971    1.6023   -0.8419 S.3       12 UNK        -0.2522 
     17 C17        28.9867    2.9634   -2.0607 C.3       12 UNK        -0.0967 
     18 CA         28.5818    2.5317   -3.4944 C.3       5 UNK         0.0660 
     19 N          27.2971    1.8250   -3.5152 N.am      5 UNK        -0.4015 
     20 C          26.6943    1.3077   -4.5929 C.2       4 UNK         0.4946 
     21 O          27.1001    1.4443   -5.7512 O.2       4 UNK        -0.5353 
     22 CA         25.4250    0.4783   -4.3223 C.3       4 UNK         0.0277 
     23 CB         24.1504    1.3352   -4.3794 C.3       4 UNK        -0.1981 
     24 N          25.3217   -0.6349   -5.2696 N.am      4 UNK        -0.4209 
     25 C          26.1425   -1.6905   -5.2321 C.2       3 UNK         0.4942 
     26 O          26.9251   -1.8998   -4.2980 O.2       3 UNK        -0.5208 
     27 CA         26.0926   -2.6674   -6.4186 C.3       3 UNK         0.0250 
     28 CB         26.4569   -1.9846   -7.7499 C.3       3 UNK        -0.1990 
     29 N          27.0534   -3.7194   -6.1242 N.am      3 UNK        -0.4232 
     30 C          27.0051   -5.0097   -6.4678 C.2       2 UNK         0.4993 
     31 O          26.2004   -5.4847   -7.2692 O.2       2 UNK        -0.5286 
     32 CA         28.0085   -5.9303   -5.7423 C.3       2 UNK         0.0209 
     33 CB         29.2982   -6.0905   -6.5646 C.3       2 UNK        -0.1931 
     34 N          28.3277   -5.4103   -4.4029 N.am      2 UNK        -0.4546 
     35 C          27.4778   -5.4950   -3.3675 C.2       1 UNK         0.5154 
     36 O          26.5058   -6.2536   -3.3601 O.2       1 UNK        -0.5181 
     37 C          28.5749    3.7393   -4.4549 C.2       5 UNK         0.5014 
     38 O          27.8075    4.6799   -4.2387 O.2       5 UNK        -0.5248 
     39 N          29.4046    3.6637   -5.5047 N.am      6 UNK        -0.4434 
     40 CA         29.5575    4.6161   -6.6109 C.3       6 UNK         0.0363 
     41 CB         30.1030    5.9656   -6.0969 C.3       6 UNK        -0.1936 
     42 C          28.3115    4.7951   -7.5070 C.2       6 UNK         0.5081 
     43 O          28.2960    5.7235   -8.3171 O.2       6 UNK        -0.5248 
     44 N          27.2976    3.9254   -7.3828 N.am      7 UNK        -0.4718 
     45 CA         26.0621    4.0011   -8.1714 C.3       7 UNK         0.0273 
     46 CB         24.9117    3.3672   -7.3788 C.3       7 UNK        -0.1935 
     47 C          26.1882    3.3193   -9.5425 C.2       7 UNK         0.5018 
     48 O          25.4737    3.6999  -10.4711 O.2       7 UNK        -0.5186 
     49 N          27.0784    2.3276   -9.6466 N.am      8 UNK        -0.4240 
     50 CA         27.3789    1.5773  -10.8604 C.3       8 UNK         0.0235 
     51 CB         26.4298    0.3722  -10.9822 C.3       8 UNK        -0.2000 
     52 C          28.8373    1.1227  -10.7881 C.2       8 UNK         0.4941 
     53 O          29.3757    0.9855   -9.6866 O.2       8 UNK        -0.5273 
     54 N          29.4357    0.8639  -11.9590 N.am      9 UNK        -0.4262 
     55 CA         30.8570    0.5446  -12.1580 C.3       9 UNK         0.0264 
     56 CB         31.1198    0.3434  -13.6598 C.3       9 UNK        -0.1955 
     57 C          31.3987   -0.6550  -11.3571 C.2       9 UNK         0.5031 
     58 O          32.6060   -0.7152  -11.1212 O.2       9 UNK        -0.5390 
     59 N          30.5122   -1.5662  -10.9326 N.am      10 UNK        -0.4204 
     60 CA         30.8225   -2.6921  -10.0487 C.3       10 UNK         0.0237 
     61 CB         29.5879   -3.6019   -9.9320 C.3       10 UNK        -0.1985 
     62 C          31.3045   -2.2688   -8.6476 C.2       10 UNK         0.4970 
     63 O          32.0957   -3.0021   -8.0538 O.2       10 UNK        -0.4914 
     64 N          30.8337   -1.1137   -8.1559 N.am      11 UNK        -0.4285 
     65 CA         31.1553   -0.5587   -6.8319 C.3       11 UNK         0.1007 
     66 C          31.4572    0.9651   -6.8739 C.2       11 UNK         0.5703 
     67 N          31.8761    1.5225   -8.0026 N.am      11 UNK        -0.7361 
     68 O          31.3373    1.6562   -5.8649 O.2       11 UNK        -0.4986 
     69 C69        30.0994   -0.9541   -5.7571 C.3       12 UNK        -0.0947 
     70 S70        30.2748   -2.6843   -5.2115 S.3       12 UNK        -0.2240 
     71 C71        31.7045   -2.5735   -4.0872 C.3       12 UNK         0.0194 
     72 H72        23.4568   -3.1361   -2.1548 H         1 UNK         0.0906 
     73 H73        24.0217   -2.4305   -0.6373 H         1 UNK         0.0906 
     74 H74        24.7195   -1.9052   -2.1700 H         1 UNK         0.0906 
     75 H75        26.6880   -2.7753   -2.5830 H         1 UNK         0.3140 
     76 H76        28.5354   -3.8739   -2.4725 H         1 UNK         0.1085 
     77 H77        29.1002   -5.8184   -1.0741 H         1 UNK         0.0836 
     78 H78        27.4388   -6.0403   -0.6200 H         1 UNK         0.0836 
     79 H79        30.4738   -3.5099    1.5510 H         1 UNK         0.0731 
     80 H80        30.7355   -4.7628    0.3683 H         1 UNK         0.0731 
     81 H81        31.0640   -4.1821   -1.9980 H         1 UNK         0.1312 
     82 H82        31.4364   -0.0457   -3.0708 H         1 UNK         0.1406 
     83 H83        30.0816   -1.1293    0.8491 H         1 UNK         0.1631 
     84 H84        31.2777    1.6444   -1.3456 H         1 UNK         0.0717 
     85 H85        30.9711    1.2026    0.3125 H         1 UNK         0.0717 
     86 H86        28.3237    3.7546   -1.7044 H         1 UNK         0.0934 
     87 H87        29.9880    3.3978   -2.0585 H         1 UNK         0.0934 
     88 H88        29.3297    1.8174   -3.8447 H         1 UNK         0.0739 
     89 H89        26.8866    1.6674   -2.6067 H         1 UNK         0.3093 
     90 H90        25.5028    0.0663   -3.3141 H         1 UNK         0.0818 
     91 H91        23.2916    0.7808   -4.0006 H         1 UNK         0.0819 
     92 H92        24.2491    2.2329   -3.7675 H         1 UNK         0.0819 
     93 H93        23.9122    1.6529   -5.3922 H         1 UNK         0.0819 
     94 H94        24.7252   -0.5001   -6.0723 H         1 UNK         0.3041 
     95 H95        25.0884   -3.0924   -6.4747 H         1 UNK         0.0784 
     96 H96        26.4435   -2.6983   -8.5737 H         1 UNK         0.0793 
     97 H97        25.7460   -1.1961   -7.9977 H         1 UNK         0.0793 
     98 H98        27.4484   -1.5319   -7.7156 H         1 UNK         0.0793 
     99 H99        27.7267   -3.4324   -5.4233 H         1 UNK         0.3024 
    100 H100       27.5441   -6.9142   -5.6417 H         1 UNK         0.1171 
    101 H101       29.7891   -5.1350   -6.7500 H         1 UNK         0.0786 
    102 H102       29.0829   -6.5353   -7.5371 H         1 UNK         0.0786 
    103 H103       30.0118   -6.7431   -6.0615 H         1 UNK         0.0786 
    104 H104       29.1249   -4.7909   -4.3419 H         1 UNK         0.2977 
    105 H105       30.0055    2.8431   -5.5790 H         1 UNK         0.3127 
    106 H106       30.3198    4.1844   -7.2608 H         1 UNK         0.0770 
    107 H107       29.3675    6.4949   -5.4906 H         1 UNK         0.0814 
    108 H108       30.3720    6.6223   -6.9251 H         1 UNK         0.0814 
    109 H109       30.9999    5.8272   -5.4933 H         1 UNK         0.0814 
    110 H110       27.3706    3.1608   -6.7159 H         1 UNK         0.2983 
    111 H111       25.8121    5.0507   -8.3428 H         1 UNK         0.0947 
    112 H112       23.9580    3.5223   -7.8849 H         1 UNK         0.0806 
    113 H113       24.8275    3.7999   -6.3817 H         1 UNK         0.0806 
    114 H114       25.0523    2.2912   -7.2756 H         1 UNK         0.0806 
    115 H115       27.6700    2.1033   -8.8555 H         1 UNK         0.3000 
    116 H116       27.2616    2.2298  -11.7285 H         1 UNK         0.0850 
    117 H117       26.5519   -0.3196  -10.1491 H         1 UNK         0.0810 
    118 H118       25.3868    0.6885  -11.0040 H         1 UNK         0.0810 
    119 H119       26.6168   -0.1856  -11.9005 H         1 UNK         0.0810 
    120 H120       28.8913    0.9772  -12.8027 H         1 UNK         0.3040 
    121 H121       31.4239    1.4183  -11.8298 H         1 UNK         0.0766 
    122 H122       30.8641    1.2350  -14.2325 H         1 UNK         0.0812 
    123 H123       30.5451   -0.4922  -14.0613 H         1 UNK         0.0812 
    124 H124       32.1739    0.1337  -13.8486 H         1 UNK         0.0812 
    125 H125       29.5428   -1.4302  -11.1778 H         1 UNK         0.3205 
    126 H126       31.6281   -3.2649  -10.5130 H         1 UNK         0.0754 
    127 H127       29.8010   -4.4697   -9.3062 H         1 UNK         0.0769 
    128 H128       29.2751   -3.9769  -10.9066 H         1 UNK         0.0769 
    129 H129       28.7425   -3.0792   -9.4838 H         1 UNK         0.0769 
    130 H130       30.2301   -0.5307   -8.7294 H         1 UNK         0.2981 
    131 H131       32.1168   -0.9686   -6.5228 H         1 UNK         0.0541 
    132 H132       32.0905    2.5056   -8.0191 H         1 UNK         0.3459 
    133 H133       31.9698    0.9717   -8.8407 H         1 UNK         0.3459 
    134 H134       29.0915   -0.8094   -6.1469 H         1 UNK         0.0612 
    135 H135       30.1513   -0.3245   -4.8716 H         1 UNK         0.0612 
    136 H136       32.4502   -1.8806   -4.4765 H         1 UNK         0.0624 
    137 H137       32.1920   -3.5489   -4.0534 H         1 UNK         0.0624 
@<TRIPOS>BOND
     1    1    2 1    
     2    1   72 1    
     3    1   73 1    
     4    1   74 1    
     5    2    3 2    
     6    2    4 am   BACKBONE|DICT|INTERRES
     7    4    5 1    
     8    4   75 1    
     9    5    6 1    
    10    5   35 1    
    11    5   76 1    
    12    6    7 1    
    13    6   77 1    
    14    6   78 1    
    15    7    8 1    
    16    8    9 1    
    17    8   79 1    
    18    8   80 1    
    19    9   10 ar   
    20    9   14 ar   
    21   10   11 ar   
    22   10   81 1    
    23   11   12 ar   
    24   11   71 1    
    25   12   13 ar   
    26   12   82 1    
    27   13   14 ar   
    28   13   15 1    
    29   14   83 1    
    30   15   16 1    
    31   15   84 1    
    32   15   85 1    
    33   16   17 1    
    34   17   18 1    
    35   17   86 1    
    36   17   87 1    
    37   18   19 1    
    38   18   37 1    
    39   18   88 1    
    40   19   20 am   BACKBONE|DICT|INTERRES
    41   19   89 1    
    42   20   21 2    
    43   20   22 1    
    44   22   23 1    
    45   22   24 1    
    46   22   90 1    
    47   23   91 1    
    48   23   92 1    
    49   23   93 1    
    50   24   25 am   BACKBONE|DICT|INTERRES
    51   24   94 1    
    52   25   26 2    
    53   25   27 1    
    54   27   28 1    
    55   27   29 1    
    56   27   95 1    
    57   28   96 1    
    58   28   97 1    
    59   28   98 1    
    60   29   30 am   BACKBONE|DICT|INTERRES
    61   29   99 1    
    62   30   31 2    
    63   30   32 1    
    64   32   33 1    
    65   32   34 1    
    66   32  100 1    
    67   33  101 1    
    68   33  102 1    
    69   33  103 1    
    70   34   35 am   BACKBONE|DICT|INTERRES
    71   34  104 1    
    72   35   36 2    
    73   37   38 2    
    74   37   39 am   BACKBONE|DICT|INTERRES
    75   39   40 1    
    76   39  105 1    
    77   40   41 1    
    78   40   42 1    
    79   40  106 1    
    80   41  107 1    
    81   41  108 1    
    82   41  109 1    
    83   42   43 2    
    84   42   44 am   BACKBONE|DICT|INTERRES
    85   44   45 1    
    86   44  110 1    
    87   45   46 1    
    88   45   47 1    
    89   45  111 1    
    90   46  112 1    
    91   46  113 1    
    92   46  114 1    
    93   47   48 2    
    94   47   49 am   BACKBONE|DICT|INTERRES
    95   49   50 1    
    96   49  115 1    
    97   50   51 1    
    98   50   52 1    
    99   50  116 1    
   100   51  117 1    
   101   51  118 1    
   102   51  119 1    
   103   52   53 2    
   104   52   54 am   BACKBONE|DICT|INTERRES
   105   54   55 1    
   106   54  120 1    
   107   55   56 1    
   108   55   57 1    
   109   55  121 1    
   110   56  122 1    
   111   56  123 1    
   112   56  124 1    
   113   57   58 2    
   114   57   59 am   BACKBONE|DICT|INTERRES
   115   59   60 1    
   116   59  125 1    
   117   60   61 1    
   118   60   62 1    
   119   60  126 1    
   120   61  127 1    
   121   61  128 1    
   122   61  129 1    
   123   62   63 2    
   124   62   64 am   BACKBONE|DICT|INTERRES
   125   64   65 1    
   126   64  130 1    
   127   65   66 1    
   128   65   69 1    
   129   65  131 1    
   130   66   67 am   BACKBONE|DICT|INTERRES
   131   66   68 2    
   132   67  132 1    
   133   67  133 1    
   134   69   70 1    
   135   69  134 1    
   136   69  135 1    
   137   70   71 1    
   138   71  136 1    
   139   71  137 1    
@<TRIPOS>SUBSTRUCTURE
     1 UNK         1 GROUP             0       ****    0 ROOT    
