@<TRIPOS>MOLECULE
3R137
137   139    1
SMALL
USER_CHARGES


@<TRIPOS>ATOM
      1 CA         27.0995   -3.8891    2.0362 C.3       0 UNK        -0.2020 
      2 C          27.9309   -4.4593    0.8899 C.2       0 UNK         0.4855 
      3 O          28.0963   -5.6746    0.8129 O.2       0 UNK        -0.5197 
      4 N          28.4821   -3.6425   -0.0195 N.am      1 UNK        -0.4892 
      5 CA         28.3623   -2.1804   -0.1089 C.3       1 UNK         0.0835 
      6 C6         29.3492   -1.5832   -1.1421 C.3       12 UNK        -0.0855 
      7 S7         31.1092   -1.8686   -0.7419 S.3       12 UNK        -0.2931 
      8 C8         31.5078   -3.4403   -1.5826 C.3       12 UNK         0.0378 
      9 C9         31.0912   -3.4596   -3.0473 C.ar      12 UNK        -0.0802 
     10 C10        31.7981   -2.7124   -3.9929 C.ar      12 UNK        -0.0944 
     11 C11        31.4233   -2.7254   -5.3448 C.ar      12 UNK        -0.0787 
     12 C12        30.3240   -3.5015   -5.7327 C.ar      12 UNK        -0.0862 
     13 C13        29.6114   -4.2570   -4.7963 C.ar      12 UNK        -0.0733 
     14 C14        30.0032   -4.2342   -3.4568 C.ar      12 UNK        -0.0832 
     15 C15        28.4364   -5.1265   -5.2199 C.3       12 UNK         0.0240 
     16 S16        26.8843   -4.1774   -5.3163 S.3       12 UNK        -0.2522 
     17 C17        26.7547   -3.8586   -7.1088 C.3       12 UNK        -0.0967 
     18 CA         26.5021   -2.3855   -7.5042 C.3       5 UNK         0.0660 
     19 N          25.2385   -1.8420   -7.0014 N.am      5 UNK        -0.4015 
     20 C          24.6139   -0.8015   -7.5732 C.2       4 UNK         0.4946 
     21 O          25.0461   -0.2006   -8.5586 O.2       4 UNK        -0.5353 
     22 CA         23.3021   -0.3330   -6.9252 C.3       4 UNK         0.0277 
     23 CB         22.1942   -1.3885   -7.0807 C.3       4 UNK        -0.1981 
     24 N          23.4617    0.0184   -5.5139 N.am      4 UNK        -0.4209 
     25 C          24.2532    0.9993   -5.0569 C.2       3 UNK         0.4942 
     26 O          24.9392    1.7237   -5.7758 O.2       3 UNK        -0.5208 
     27 CA         24.3074    1.1992   -3.5342 C.3       3 UNK         0.0250 
     28 CB         23.2072    2.1733   -3.0828 C.3       3 UNK        -0.1990 
     29 N          24.2208   -0.0350   -2.7460 N.am      3 UNK        -0.4232 
     30 C          25.0473   -1.0838   -2.8575 C.2       2 UNK         0.4993 
     31 O          25.8996   -1.2049   -3.7413 O.2       2 UNK        -0.5286 
     32 CA         24.8977   -2.1871   -1.7984 C.3       2 UNK         0.0209 
     33 CB         24.2386   -3.4395   -2.3973 C.3       2 UNK        -0.1931 
     34 N          26.2064   -2.5367   -1.2447 N.am      2 UNK        -0.4546 
     35 C          26.9312   -1.7253   -0.4598 C.2       1 UNK         0.5154 
     36 O          26.5122   -0.6579   -0.0105 O.2       1 UNK        -0.5181 
     37 C          27.6936   -1.4609   -7.2035 C.2       5 UNK         0.5014 
     38 O          28.5859   -1.3609   -8.0467 O.2       5 UNK        -0.5248 
     39 N          27.6712   -0.7630   -6.0559 N.am      6 UNK        -0.4434 
     40 CA         28.6690    0.2475   -5.7000 C.3       6 UNK         0.0363 
     41 CB         28.4274    0.7594   -4.2741 C.3       6 UNK        -0.1936 
     42 C          28.7135    1.4159   -6.6970 C.2       6 UNK         0.5081 
     43 O          29.8056    1.8772   -7.0255 O.2       6 UNK        -0.5248 
     44 N          27.5464    1.8525   -7.1897 N.am      7 UNK        -0.4718 
     45 CA         27.4381    2.8310   -8.2701 C.3       7 UNK         0.0273 
     46 CB         26.0069    3.3872   -8.3388 C.3       7 UNK        -0.1935 
     47 C          27.8641    2.2402   -9.6224 C.2       7 UNK         0.5018 
     48 O          28.7068    2.8349  -10.2944 O.2       7 UNK        -0.5186 
     49 N          27.2895    1.0847   -9.9933 N.am      8 UNK        -0.4240 
     50 CA         27.4934    0.4364  -11.2947 C.3       8 UNK         0.0235 
     51 CB         26.5575   -0.7741  -11.4329 C.3       8 UNK        -0.2000 
     52 C          28.9478    0.0260  -11.5780 C.2       8 UNK         0.4941 
     53 O          29.4227    0.2424  -12.6936 O.2       8 UNK        -0.5273 
     54 N          29.6313   -0.5378  -10.5728 N.am      9 UNK        -0.4262 
     55 CA         31.0396   -0.9381  -10.6559 C.3       9 UNK         0.0264 
     56 CB         31.2278   -2.2778   -9.9246 C.3       9 UNK        -0.1955 
     57 C          32.0097    0.1519  -10.1552 C.2       9 UNK         0.5031 
     58 O          33.2156   -0.0976  -10.1242 O.2       9 UNK        -0.5390 
     59 N          31.4849    1.3392   -9.8124 N.am      10 UNK        -0.4204 
     60 CA         32.2044    2.5639   -9.4410 C.3       10 UNK         0.0237 
     61 CB         32.9566    3.1373  -10.6615 C.3       10 UNK        -0.1985 
     62 C          33.0991    2.4251   -8.1920 C.2       10 UNK         0.4970 
     63 O          34.2140    2.9517   -8.1729 O.2       10 UNK        -0.4914 
     64 N          32.5783    1.7537   -7.1597 N.am      11 UNK        -0.4285 
     65 CA         33.1489    1.7484   -5.8033 C.3       11 UNK         0.1007 
     66 C          32.6546    2.9502   -4.9507 C.2       11 UNK         0.5703 
     67 N          31.5079    3.5485   -5.2559 N.am      11 UNK        -0.7361 
     68 O          33.3288    3.3518   -4.0055 O.2       11 UNK        -0.4986 
     69 C69        32.8892    0.4161   -5.0564 C.3       12 UNK        -0.0947 
     70 S70        33.6472   -1.0133   -5.8960 S.3       12 UNK        -0.2240 
     71 C71        32.1683   -1.9398   -6.4290 C.3       12 UNK         0.0194 
     72 H72        26.1054   -3.6099    1.6884 H         1 UNK         0.0906 
     73 H73        26.9778   -4.6351    2.8214 H         1 UNK         0.0906 
     74 H74        27.5735   -3.0190    2.4879 H         1 UNK         0.0906 
     75 H75        29.0549   -4.0594   -0.7356 H         1 UNK         0.3140 
     76 H76        28.6092   -1.7562    0.8662 H         1 UNK         0.1085 
     77 H77        29.2232   -0.4992   -1.1876 H         1 UNK         0.0836 
     78 H78        29.1238   -1.9383   -2.1482 H         1 UNK         0.0836 
     79 H79        31.0511   -4.2670   -1.0376 H         1 UNK         0.0731 
     80 H80        32.5845   -3.6041   -1.5173 H         1 UNK         0.0731 
     81 H81        32.6390   -2.1246   -3.6557 H         1 UNK         0.1312 
     82 H82        30.0240   -3.5214   -6.7716 H         1 UNK         0.1406 
     83 H83        29.4583   -4.8273   -2.7359 H         1 UNK         0.1631 
     84 H84        28.2941   -5.9328   -4.4987 H         1 UNK         0.0717 
     85 H85        28.6540   -5.6214   -6.1670 H         1 UNK         0.0717 
     86 H86        27.6495   -4.2180   -7.6196 H         1 UNK         0.0934 
     87 H87        25.9419   -4.4774   -7.4921 H         1 UNK         0.0934 
     88 H88        26.4148   -2.3984   -8.5919 H         1 UNK         0.0739 
     89 H89        24.8688   -2.2525   -6.1561 H         1 UNK         0.3093 
     90 H90        22.9837    0.5687   -7.4532 H         1 UNK         0.0818 
     91 H91        21.2344   -1.0081   -6.7308 H         1 UNK         0.0819 
     92 H92        22.0662   -1.6671   -8.1278 H         1 UNK         0.0819 
     93 H93        22.4148   -2.3007   -6.5252 H         1 UNK         0.0819 
     94 H94        22.9419   -0.5257   -4.8413 H         1 UNK         0.3041 
     95 H95        25.2724    1.6550   -3.3053 H         1 UNK         0.0784 
     96 H96        23.2620    3.1094   -3.6407 H         1 UNK         0.0793 
     97 H97        22.2103    1.7590   -3.2391 H         1 UNK         0.0793 
     98 H98        23.3062    2.4237   -2.0264 H         1 UNK         0.0793 
     99 H99        23.5454   -0.0325   -1.9951 H         1 UNK         0.3024 
    100 H100       24.2692   -1.8222   -0.9827 H         1 UNK         0.1171 
    101 H101       23.2518   -3.2073   -2.7998 H         1 UNK         0.0786 
    102 H102       24.8309   -3.8593   -3.2101 H         1 UNK         0.0786 
    103 H103       24.1063   -4.2164   -1.6441 H         1 UNK         0.0786 
    104 H104       26.6370   -3.3808   -1.5926 H         1 UNK         0.2977 
    105 H105       26.9321   -0.9367   -5.3780 H         1 UNK         0.3127 
    106 H106       29.6422   -0.2436   -5.7212 H         1 UNK         0.0770 
    107 H107       27.4686    1.2702   -4.1887 H         1 UNK         0.0814 
    108 H108       29.2044    1.4645   -3.9756 H         1 UNK         0.0814 
    109 H109       28.4356   -0.0590   -3.5558 H         1 UNK         0.0814 
    110 H110       26.6773    1.4735   -6.8260 H         1 UNK         0.2983 
    111 H111       28.1098    3.6629   -8.0459 H         1 UNK         0.0947 
    112 H112       25.9068    4.1133   -9.1466 H         1 UNK         0.0806 
    113 H113       25.7368    3.8937   -7.4121 H         1 UNK         0.0806 
    114 H114       25.2722    2.5997   -8.5120 H         1 UNK         0.0806 
    115 H115       26.5947    0.6646   -9.3801 H         1 UNK         0.3000 
    116 H116       27.2101    1.1645  -12.0578 H         1 UNK         0.0850 
    117 H117       26.7883   -1.5458  -10.6996 H         1 UNK         0.0810 
    118 H118       26.6492   -1.2270  -12.4210 H         1 UNK         0.0810 
    119 H119       25.5135   -0.4878  -11.3038 H         1 UNK         0.0810 
    120 H120       29.1655   -0.7082   -9.6814 H         1 UNK         0.3040 
    121 H121       31.3067   -1.1114  -11.7004 H         1 UNK         0.0766 
    122 H122       30.8709   -2.2304   -8.8993 H         1 UNK         0.0812 
    123 H123       32.2761   -2.5781   -9.8988 H         1 UNK         0.0812 
    124 H124       30.6773   -3.0747  -10.4245 H         1 UNK         0.0812 
    125 H125       30.4793    1.4409   -9.8745 H         1 UNK         0.3205 
    126 H126       31.4325    3.2857   -9.1691 H         1 UNK         0.0754 
    127 H127       33.3844    4.1148  -10.4357 H         1 UNK         0.0769 
    128 H128       32.2877    3.2678  -11.5124 H         1 UNK         0.0769 
    129 H129       33.7747    2.4874  -10.9739 H         1 UNK         0.0769 
    130 H130       31.6100    1.4557   -7.2327 H         1 UNK         0.2981 
    131 H131       34.2321    1.8602   -5.8825 H         1 UNK         0.0541 
    132 H132       30.9234    3.1808   -5.9976 H         1 UNK         0.3459 
    133 H133       31.1972    4.3331   -4.7061 H         1 UNK         0.3459 
    134 H134       31.8191    0.2500   -4.9263 H         1 UNK         0.0612 
    135 H135       33.3113    0.4552   -4.0504 H         1 UNK         0.0612 
    136 H136       32.4908   -2.6440   -7.1965 H         1 UNK         0.0624 
    137 H137       31.4795   -1.2441   -6.9094 H         1 UNK         0.0624 
@<TRIPOS>BOND
     1    1    2 1    
     2    1   72 1    
     3    1   73 1    
     4    1   74 1    
     5    2    3 2    
     6    2    4 am   BACKBONE|DICT|INTERRES
     7    4    5 1    
     8    4   75 1    
     9    5    6 1    
    10    5   35 1    
    11    5   76 1    
    12    6    7 1    
    13    6   77 1    
    14    6   78 1    
    15    7    8 1    
    16    8    9 1    
    17    8   79 1    
    18    8   80 1    
    19    9   10 ar   
    20    9   14 ar   
    21   10   11 ar   
    22   10   81 1    
    23   11   12 ar   
    24   11   71 1    
    25   12   13 ar   
    26   12   82 1    
    27   13   14 ar   
    28   13   15 1    
    29   14   83 1    
    30   15   16 1    
    31   15   84 1    
    32   15   85 1    
    33   16   17 1    
    34   17   18 1    
    35   17   86 1    
    36   17   87 1    
    37   18   19 1    
    38   18   37 1    
    39   18   88 1    
    40   19   20 am   BACKBONE|DICT|INTERRES
    41   19   89 1    
    42   20   21 2    
    43   20   22 1    
    44   22   23 1    
    45   22   24 1    
    46   22   90 1    
    47   23   91 1    
    48   23   92 1    
    49   23   93 1    
    50   24   25 am   BACKBONE|DICT|INTERRES
    51   24   94 1    
    52   25   26 2    
    53   25   27 1    
    54   27   28 1    
    55   27   29 1    
    56   27   95 1    
    57   28   96 1    
    58   28   97 1    
    59   28   98 1    
    60   29   30 am   BACKBONE|DICT|INTERRES
    61   29   99 1    
    62   30   31 2    
    63   30   32 1    
    64   32   33 1    
    65   32   34 1    
    66   32  100 1    
    67   33  101 1    
    68   33  102 1    
    69   33  103 1    
    70   34   35 am   BACKBONE|DICT|INTERRES
    71   34  104 1    
    72   35   36 2    
    73   37   38 2    
    74   37   39 am   BACKBONE|DICT|INTERRES
    75   39   40 1    
    76   39  105 1    
    77   40   41 1    
    78   40   42 1    
    79   40  106 1    
    80   41  107 1    
    81   41  108 1    
    82   41  109 1    
    83   42   43 2    
    84   42   44 am   BACKBONE|DICT|INTERRES
    85   44   45 1    
    86   44  110 1    
    87   45   46 1    
    88   45   47 1    
    89   45  111 1    
    90   46  112 1    
    91   46  113 1    
    92   46  114 1    
    93   47   48 2    
    94   47   49 am   BACKBONE|DICT|INTERRES
    95   49   50 1    
    96   49  115 1    
    97   50   51 1    
    98   50   52 1    
    99   50  116 1    
   100   51  117 1    
   101   51  118 1    
   102   51  119 1    
   103   52   53 2    
   104   52   54 am   BACKBONE|DICT|INTERRES
   105   54   55 1    
   106   54  120 1    
   107   55   56 1    
   108   55   57 1    
   109   55  121 1    
   110   56  122 1    
   111   56  123 1    
   112   56  124 1    
   113   57   58 2    
   114   57   59 am   BACKBONE|DICT|INTERRES
   115   59   60 1    
   116   59  125 1    
   117   60   61 1    
   118   60   62 1    
   119   60  126 1    
   120   61  127 1    
   121   61  128 1    
   122   61  129 1    
   123   62   63 2    
   124   62   64 am   BACKBONE|DICT|INTERRES
   125   64   65 1    
   126   64  130 1    
   127   65   66 1    
   128   65   69 1    
   129   65  131 1    
   130   66   67 am   BACKBONE|DICT|INTERRES
   131   66   68 2    
   132   67  132 1    
   133   67  133 1    
   134   69   70 1    
   135   69  134 1    
   136   69  135 1    
   137   70   71 1    
   138   71  136 1    
   139   71  137 1    
@<TRIPOS>SUBSTRUCTURE
     1 UNK         1 GROUP             0       ****    0 ROOT    
