@<TRIPOS>MOLECULE
3R137
137   139    1
SMALL
USER_CHARGES


@<TRIPOS>ATOM
      1 CA         28.3673   -5.5557    0.8184 C.3       0 UNK        -0.2020 
      2 C          27.7748   -4.1670    1.0043 C.2       0 UNK         0.4855 
      3 O          26.8153   -4.0051    1.7584 O.2       0 UNK        -0.5197 
      4 N          28.3397   -3.1632    0.3208 N.am      1 UNK        -0.4892 
      5 CA         27.8844   -1.7659    0.3428 C.3       1 UNK         0.0835 
      6 C6         29.0024   -0.7877   -0.1050 C.3       12 UNK        -0.0855 
      7 S7         29.6207   -1.0767   -1.7989 S.3       12 UNK        -0.2931 
      8 C8         31.0997   -2.1016   -1.4910 C.3       12 UNK         0.0378 
      9 C9         31.5576   -2.7877   -2.7697 C.ar      12 UNK        -0.0802 
     10 C10        32.8368   -2.5617   -3.2853 C.ar      12 UNK        -0.0944 
     11 C11        33.2375   -3.1543   -4.4876 C.ar      12 UNK        -0.0787 
     12 C12        32.3298   -3.9704   -5.1789 C.ar      12 UNK        -0.0862 
     13 C13        31.0321   -4.1706   -4.6974 C.ar      12 UNK        -0.0733 
     14 C14        30.6781   -3.6253   -3.4600 C.ar      12 UNK        -0.0832 
     15 C15        30.0117   -4.9151   -5.5625 C.3       12 UNK         0.0240 
     16 S16        28.2879   -4.2864   -5.4545 S.3       12 UNK        -0.2522 
     17 C17        28.4857   -2.4690   -5.4908 C.3       12 UNK        -0.0967 
     18 CA         27.7520   -1.7666   -6.6540 C.3       5 UNK         0.0660 
     19 N          26.3018   -1.9684   -6.6479 N.am      5 UNK        -0.4015 
     20 C          25.4951   -1.6369   -7.6681 C.2       4 UNK         0.4946 
     21 O          25.8936   -1.1838   -8.7416 O.2       4 UNK        -0.5353 
     22 CA         23.9833   -1.7963   -7.4377 C.3       4 UNK         0.0277 
     23 CB         23.5554   -3.2613   -7.6215 C.3       4 UNK        -0.1981 
     24 N          23.5618   -1.3191   -6.1189 N.am      4 UNK        -0.4209 
     25 C          23.6485   -0.0452   -5.7074 C.2       3 UNK         0.4942 
     26 O          24.0354    0.8811   -6.4184 O.2       3 UNK        -0.5208 
     27 CA         23.2837    0.2377   -4.2401 C.3       3 UNK         0.0250 
     28 CB         21.7840    0.5467   -4.1089 C.3       3 UNK        -0.1990 
     29 N          23.6448   -0.8490   -3.3233 N.am      3 UNK        -0.4232 
     30 C          24.8898   -1.3047   -3.1233 C.2       2 UNK         0.4993 
     31 O          25.8834   -0.8816   -3.7201 O.2       2 UNK        -0.5286 
     32 CA         25.0240   -2.4909   -2.1572 C.3       2 UNK         0.0209 
     33 CB         24.9684   -3.8152   -2.9370 C.3       2 UNK        -0.1931 
     34 N          26.2634   -2.4532   -1.3818 N.am      2 UNK        -0.4546 
     35 C          26.5601   -1.5560   -0.4297 C.2       1 UNK         0.5154 
     36 O          25.8187   -0.6225   -0.1164 O.2       1 UNK        -0.5181 
     37 C          28.0988   -0.2676   -6.6390 C.2       5 UNK         0.5014 
     38 O          28.9840    0.1460   -7.3885 O.2       5 UNK        -0.5248 
     39 N          27.3958    0.5063   -5.7961 N.am      6 UNK        -0.4434 
     40 CA         27.5464    1.9564   -5.6652 C.3       6 UNK         0.0363 
     41 CB         26.6257    2.4891   -4.5565 C.3       6 UNK        -0.1936 
     42 C          27.3076    2.6958   -6.9915 C.2       6 UNK         0.5081 
     43 O          28.1630    3.4781   -7.4106 O.2       6 UNK        -0.5248 
     44 N          26.1743    2.3935   -7.6428 N.am      7 UNK        -0.4718 
     45 CA         25.7764    2.9380   -8.9433 C.3       7 UNK         0.0273 
     46 CB         24.3605    2.4527   -9.2912 C.3       7 UNK        -0.1935 
     47 C          26.7559    2.5923  -10.0756 C.2       7 UNK         0.5018 
     48 O          27.0337    3.4496  -10.9154 O.2       7 UNK        -0.5186 
     49 N          27.3025    1.3693  -10.0599 N.am      8 UNK        -0.4240 
     50 CA         28.3197    0.8867  -10.9977 C.3       8 UNK         0.0235 
     51 CB         28.2382   -0.6483  -11.0692 C.3       8 UNK        -0.2000 
     52 C          29.7335    1.4043  -10.6530 C.2       8 UNK         0.4941 
     53 O          30.6738    0.6159  -10.5522 O.2       8 UNK        -0.5273 
     54 N          29.8603    2.7288  -10.4889 N.am      9 UNK        -0.4262 
     55 CA         31.0907    3.4819  -10.2169 C.3       9 UNK         0.0264 
     56 CB         31.9982    3.4925  -11.4659 C.3       9 UNK        -0.1955 
     57 C          31.8305    3.0221   -8.9434 C.2       9 UNK         0.5031 
     58 O          33.0545    2.8767   -8.9630 O.2       9 UNK        -0.5390 
     59 N          31.0709    2.8098   -7.8589 N.am      10 UNK        -0.4204 
     60 CA         31.5291    2.4543   -6.5084 C.3       10 UNK         0.0237 
     61 CB         32.4252    3.5650   -5.9177 C.3       10 UNK        -0.1985 
     62 C          32.1591    1.0541   -6.3506 C.2       10 UNK         0.4970 
     63 O          32.6655    0.7626   -5.2659 O.2       10 UNK        -0.4914 
     64 N          32.1054    0.2045   -7.3835 N.am      11 UNK        -0.4285 
     65 CA         32.5877   -1.1840   -7.3526 C.3       11 UNK         0.1007 
     66 C          31.8764   -2.0755   -8.4106 C.2       11 UNK         0.5703 
     67 N          30.6046   -1.8407   -8.6937 N.am      11 UNK        -0.7361 
     68 O          32.4595   -2.9912   -8.9848 O.2       11 UNK        -0.4986 
     69 C69        34.1442   -1.2743   -7.3295 C.3       12 UNK        -0.0947 
     70 S70        34.8182   -2.8999   -6.8307 S.3       12 UNK        -0.2240 
     71 C71        34.6503   -2.8846   -5.0110 C.3       12 UNK         0.0194 
     72 H72        27.6119   -6.2360    0.4258 H         1 UNK         0.0906 
     73 H73        28.7132   -5.9467    1.7749 H         1 UNK         0.0906 
     74 H74        29.2114   -5.5523    0.1289 H         1 UNK         0.0906 
     75 H75        29.1233   -3.3519   -0.2859 H         1 UNK         0.3140 
     76 H76        27.6548   -1.5221    1.3829 H         1 UNK         0.1085 
     77 H77        29.8394   -0.8408    0.5932 H         1 UNK         0.0836 
     78 H78        28.6446    0.2421   -0.0463 H         1 UNK         0.0836 
     79 H79        31.8886   -1.4688   -1.0813 H         1 UNK         0.0731 
     80 H80        30.8909   -2.8625   -0.7394 H         1 UNK         0.0731 
     81 H81        33.5205   -1.9130   -2.7547 H         1 UNK         0.1312 
     82 H82        32.6152   -4.4158   -6.1219 H         1 UNK         0.1406 
     83 H83        29.6833   -3.7845   -3.0684 H         1 UNK         0.1631 
     84 H84        30.0189   -5.9703   -5.2873 H         1 UNK         0.0717 
     85 H85        30.3129   -4.8663   -6.6103 H         1 UNK         0.0717 
     86 H86        28.1493   -2.0791   -4.5278 H         1 UNK         0.0934 
     87 H87        29.5467   -2.2232   -5.5533 H         1 UNK         0.0934 
     88 H88        28.1285   -2.1852   -7.5888 H         1 UNK         0.0739 
     89 H89        25.8982   -2.2954   -5.7830 H         1 UNK         0.3093 
     90 H90        23.4702   -1.1928   -8.1898 H         1 UNK         0.0818 
     91 H91        23.8483   -3.6309   -8.6053 H         1 UNK         0.0819 
     92 H92        24.0126   -3.9162   -6.8786 H         1 UNK         0.0819 
     93 H93        22.4734   -3.3710   -7.5461 H         1 UNK         0.0819 
     94 H94        23.2155   -2.0090   -5.4689 H         1 UNK         0.3041 
     95 H95        23.8394    1.1230   -3.9274 H         1 UNK         0.0784 
     96 H96        21.4969    1.3684   -4.7668 H         1 UNK         0.0793 
     97 H97        21.1673   -0.3132   -4.3738 H         1 UNK         0.0793 
     98 H98        21.5270    0.8450   -3.0922 H         1 UNK         0.0793 
     99 H99        22.8852   -1.2651   -2.8033 H         1 UNK         0.3024 
    100 H100       24.1920   -2.4632   -1.4497 H         1 UNK         0.1171 
    101 H101       24.0414   -3.9005   -3.5055 H         1 UNK         0.0786 
    102 H102       25.7944   -3.9020   -3.6439 H         1 UNK         0.0786 
    103 H103       25.0122   -4.6730   -2.2654 H         1 UNK         0.0786 
    104 H104       26.9479   -3.1657   -1.5829 H         1 UNK         0.2977 
    105 H105       26.7318    0.0581   -5.1683 H         1 UNK         0.3127 
    106 H106       28.5701    2.1426   -5.3482 H         1 UNK         0.0770 
    107 H107       25.5741    2.4030   -4.8252 H         1 UNK         0.0814 
    108 H108       26.8232    3.5446   -4.3654 H         1 UNK         0.0814 
    109 H109       26.7789    1.9543   -3.6186 H         1 UNK         0.0814 
    110 H110       25.5181    1.7499   -7.2041 H         1 UNK         0.2983 
    111 H111       25.7542    4.0259   -8.8510 H         1 UNK         0.0947 
    112 H112       24.3121    1.3643   -9.3510 H         1 UNK         0.0806 
    113 H113       24.0342    2.8500  -10.2534 H         1 UNK         0.0806 
    114 H114       23.6362    2.7772   -8.5439 H         1 UNK         0.0806 
    115 H115       27.0262    0.7266   -9.3268 H         1 UNK         0.3000 
    116 H116       28.0856    1.2693  -11.9934 H         1 UNK         0.0850 
    117 H117       28.9930   -1.0576  -11.7418 H         1 UNK         0.0810 
    118 H118       27.2652   -0.9735  -11.4377 H         1 UNK         0.0810 
    119 H119       28.3844   -1.1001  -10.0890 H         1 UNK         0.0810 
    120 H120       29.0122    3.2799  -10.5841 H         1 UNK         0.3040 
    121 H121       30.7811    4.5109  -10.0280 H         1 UNK         0.0766 
    122 H122       32.3777    2.4965  -11.6969 H         1 UNK         0.0812 
    123 H123       32.8610    4.1432  -11.3183 H         1 UNK         0.0812 
    124 H124       31.4640    3.8596  -12.3422 H         1 UNK         0.0812 
    125 H125       30.0657    2.9374   -7.9472 H         1 UNK         0.3205 
    126 H126       30.6303    2.4262   -5.8990 H         1 UNK         0.0754 
    127 H127       32.6225    3.3897   -4.8594 H         1 UNK         0.0769 
    128 H128       31.9497    4.5427   -5.9969 H         1 UNK         0.0769 
    129 H129       33.3911    3.6184   -6.4206 H         1 UNK         0.0769 
    130 H130       31.6521    0.4925   -8.2422 H         1 UNK         0.2981 
    131 H131       32.2271   -1.5819   -6.4067 H         1 UNK         0.0541 
    132 H132       30.1583   -2.4033   -9.3980 H         1 UNK         0.3459 
    133 H133       30.1060   -1.0657   -8.2656 H         1 UNK         0.3459 
    134 H134       34.5635   -0.5315   -6.6503 H         1 UNK         0.0612 
    135 H135       34.5420   -1.0273   -8.3149 H         1 UNK         0.0612 
    136 H136       35.0183   -1.9274   -4.6381 H         1 UNK         0.0624 
    137 H137       35.3119   -3.6492   -4.6026 H         1 UNK         0.0624 
@<TRIPOS>BOND
     1    1    2 1    
     2    1   72 1    
     3    1   73 1    
     4    1   74 1    
     5    2    3 2    
     6    2    4 am   BACKBONE|DICT|INTERRES
     7    4    5 1    
     8    4   75 1    
     9    5    6 1    
    10    5   35 1    
    11    5   76 1    
    12    6    7 1    
    13    6   77 1    
    14    6   78 1    
    15    7    8 1    
    16    8    9 1    
    17    8   79 1    
    18    8   80 1    
    19    9   10 ar   
    20    9   14 ar   
    21   10   11 ar   
    22   10   81 1    
    23   11   12 ar   
    24   11   71 1    
    25   12   13 ar   
    26   12   82 1    
    27   13   14 ar   
    28   13   15 1    
    29   14   83 1    
    30   15   16 1    
    31   15   84 1    
    32   15   85 1    
    33   16   17 1    
    34   17   18 1    
    35   17   86 1    
    36   17   87 1    
    37   18   19 1    
    38   18   37 1    
    39   18   88 1    
    40   19   20 am   BACKBONE|DICT|INTERRES
    41   19   89 1    
    42   20   21 2    
    43   20   22 1    
    44   22   23 1    
    45   22   24 1    
    46   22   90 1    
    47   23   91 1    
    48   23   92 1    
    49   23   93 1    
    50   24   25 am   BACKBONE|DICT|INTERRES
    51   24   94 1    
    52   25   26 2    
    53   25   27 1    
    54   27   28 1    
    55   27   29 1    
    56   27   95 1    
    57   28   96 1    
    58   28   97 1    
    59   28   98 1    
    60   29   30 am   BACKBONE|DICT|INTERRES
    61   29   99 1    
    62   30   31 2    
    63   30   32 1    
    64   32   33 1    
    65   32   34 1    
    66   32  100 1    
    67   33  101 1    
    68   33  102 1    
    69   33  103 1    
    70   34   35 am   BACKBONE|DICT|INTERRES
    71   34  104 1    
    72   35   36 2    
    73   37   38 2    
    74   37   39 am   BACKBONE|DICT|INTERRES
    75   39   40 1    
    76   39  105 1    
    77   40   41 1    
    78   40   42 1    
    79   40  106 1    
    80   41  107 1    
    81   41  108 1    
    82   41  109 1    
    83   42   43 2    
    84   42   44 am   BACKBONE|DICT|INTERRES
    85   44   45 1    
    86   44  110 1    
    87   45   46 1    
    88   45   47 1    
    89   45  111 1    
    90   46  112 1    
    91   46  113 1    
    92   46  114 1    
    93   47   48 2    
    94   47   49 am   BACKBONE|DICT|INTERRES
    95   49   50 1    
    96   49  115 1    
    97   50   51 1    
    98   50   52 1    
    99   50  116 1    
   100   51  117 1    
   101   51  118 1    
   102   51  119 1    
   103   52   53 2    
   104   52   54 am   BACKBONE|DICT|INTERRES
   105   54   55 1    
   106   54  120 1    
   107   55   56 1    
   108   55   57 1    
   109   55  121 1    
   110   56  122 1    
   111   56  123 1    
   112   56  124 1    
   113   57   58 2    
   114   57   59 am   BACKBONE|DICT|INTERRES
   115   59   60 1    
   116   59  125 1    
   117   60   61 1    
   118   60   62 1    
   119   60  126 1    
   120   61  127 1    
   121   61  128 1    
   122   61  129 1    
   123   62   63 2    
   124   62   64 am   BACKBONE|DICT|INTERRES
   125   64   65 1    
   126   64  130 1    
   127   65   66 1    
   128   65   69 1    
   129   65  131 1    
   130   66   67 am   BACKBONE|DICT|INTERRES
   131   66   68 2    
   132   67  132 1    
   133   67  133 1    
   134   69   70 1    
   135   69  134 1    
   136   69  135 1    
   137   70   71 1    
   138   71  136 1    
   139   71  137 1    
@<TRIPOS>SUBSTRUCTURE
     1 UNK         1 GROUP             0       ****    0 ROOT    
