@<TRIPOS>MOLECULE
3R137
137   139    1
SMALL
USER_CHARGES


@<TRIPOS>ATOM
      1 CA         29.2812   -6.4369    0.5222 C.3       0 UNK        -0.2020 
      2 C          29.1302   -4.9871    0.9582 C.2       0 UNK         0.4855 
      3 O          29.7448   -4.5772    1.9432 O.2       0 UNK        -0.5197 
      4 N          28.3201   -4.2107    0.2313 N.am      1 UNK        -0.4892 
      5 CA         28.0313   -2.8010    0.5169 C.3       1 UNK         0.0835 
      6 C6         29.1948   -1.8341    0.1583 C.3       12 UNK        -0.0855 
      7 S7         29.6196   -1.7692   -1.6162 S.3       12 UNK        -0.2931 
      8 C8         31.0152   -2.9381   -1.7103 C.3       12 UNK         0.0378 
      9 C9         31.3409   -3.2528   -3.1607 C.ar      12 UNK        -0.0802 
     10 C10        32.5480   -2.8405   -3.7333 C.ar      12 UNK        -0.0944 
     11 C11        32.7963   -3.0592   -5.0919 C.ar      12 UNK        -0.0787 
     12 C12        31.8259   -3.6919   -5.8760 C.ar      12 UNK        -0.0862 
     13 C13        30.6114   -4.0991   -5.3159 C.ar      12 UNK        -0.0733 
     14 C14        30.3960   -3.9152   -3.9479 C.ar      12 UNK        -0.0832 
     15 C15        29.4996   -4.6445   -6.2088 C.3       12 UNK         0.0240 
     16 S16        27.8828   -3.8213   -5.9408 S.3       12 UNK        -0.2522 
     17 C17        28.3379   -2.0566   -5.7870 C.3       12 UNK        -0.0967 
     18 CA         27.5643   -1.1367   -6.7538 C.3       5 UNK         0.0660 
     19 N          26.1217   -1.1464   -6.5061 N.am      5 UNK        -0.4015 
     20 C          25.2038   -0.6706   -7.3589 C.2       4 UNK         0.4946 
     21 O          25.4854   -0.1545   -8.4409 O.2       4 UNK        -0.5353 
     22 CA         23.7348   -0.7196   -6.9073 C.3       4 UNK         0.0277 
     23 CB         23.1031   -2.0679   -7.2868 C.3       4 UNK        -0.1981 
     24 N          23.5630   -0.4812   -5.4708 N.am      4 UNK        -0.4209 
     25 C          23.9249    0.6443   -4.8363 C.2       3 UNK         0.4942 
     26 O          24.4123    1.6199   -5.4059 O.2       3 UNK        -0.5208 
     27 CA         23.7647    0.6701   -3.3064 C.3       3 UNK         0.0250 
     28 CB         22.3867    1.2300   -2.9189 C.3       3 UNK        -0.1990 
     29 N          23.9617   -0.6372   -2.6683 N.am      3 UNK        -0.4232 
     30 C          25.1056   -1.3355   -2.6999 C.2       2 UNK         0.4993 
     31 O          26.1136   -0.9750   -3.3107 O.2       2 UNK        -0.5286 
     32 CA         25.0993   -2.6967   -1.9910 C.3       2 UNK         0.0209 
     33 CB         24.8758   -3.8253   -3.0117 C.3       2 UNK        -0.1931 
     34 N          26.3609   -2.9319   -1.2881 N.am      2 UNK        -0.4546 
     35 C          26.6788   -2.3937   -0.1004 C.2       1 UNK         0.5154 
     36 O          25.9252   -1.6511    0.5315 O.2       1 UNK        -0.5181 
     37 C          28.1728    0.2793   -6.7231 C.2       5 UNK         0.5014 
     38 O          29.2874    0.4478   -7.2207 O.2       5 UNK        -0.5248 
     39 N          27.4792    1.2744   -6.1520 N.am      6 UNK        -0.4434 
     40 CA         27.9036    2.6761   -6.2068 C.3       6 UNK         0.0363 
     41 CB         27.2069    3.4763   -5.0956 C.3       6 UNK        -0.1936 
     42 C          27.6376    3.3083   -7.5854 C.2       6 UNK         0.5081 
     43 O          28.2994    4.2869   -7.9297 O.2       6 UNK        -0.5248 
     44 N          26.6915    2.7415   -8.3473 N.am      7 UNK        -0.4718 
     45 CA         26.3463    3.1682   -9.7014 C.3       7 UNK         0.0273 
     46 CB         24.8169    3.1471   -9.8663 C.3       7 UNK        -0.1935 
     47 C          27.0185    2.2764  -10.7546 C.2       7 UNK         0.5018 
     48 O          27.6269    2.8035  -11.6858 O.2       7 UNK        -0.5186 
     49 N          26.8785    0.9507  -10.6058 N.am      8 UNK        -0.4240 
     50 CA         27.3363   -0.0433  -11.5779 C.3       8 UNK         0.0235 
     51 CB         26.5978   -1.3740  -11.3465 C.3       8 UNK        -0.2000 
     52 C          28.8587   -0.2382  -11.5555 C.2       8 UNK         0.4941 
     53 O          29.5131   -0.0248  -12.5767 O.2       8 UNK        -0.5273 
     54 N          29.3900   -0.6579  -10.3994 N.am      9 UNK        -0.4262 
     55 CA         30.8162   -0.9415  -10.2106 C.3       9 UNK         0.0264 
     56 CB         30.9830   -1.9830   -9.0915 C.3       9 UNK        -0.1955 
     57 C          31.6404    0.3227   -9.9108 C.2       9 UNK         0.5031 
     58 O          32.8375    0.3384  -10.1986 O.2       9 UNK        -0.5390 
     59 N          30.9829    1.3432   -9.3405 N.am      10 UNK        -0.4204 
     60 CA         31.5330    2.6088   -8.8447 C.3       10 UNK         0.0237 
     61 CB         32.1681    3.4370   -9.9826 C.3       10 UNK        -0.1985 
     62 C          32.4625    2.4127   -7.6307 C.2       10 UNK         0.4970 
     63 O          33.4573    3.1284   -7.4977 O.2       10 UNK        -0.4914 
     64 N          32.1110    1.4588   -6.7599 N.am      11 UNK        -0.4285 
     65 CA         32.8569    1.1188   -5.5369 C.3       11 UNK         0.1007 
     66 C          31.9856    0.5724   -4.3741 C.2       11 UNK         0.5703 
     67 N          30.6917    0.3395   -4.5521 N.am      11 UNK        -0.7361 
     68 O          32.4892    0.4019   -3.2666 O.2       11 UNK        -0.4986 
     69 C69        34.1278    0.2609   -5.8070 C.3       12 UNK        -0.0947 
     70 S70        33.8596   -1.2051   -6.8647 S.3       12 UNK        -0.2240 
     71 C71        34.1034   -2.6057   -5.7249 C.3       12 UNK         0.0194 
     72 H72        28.6934   -6.6605   -0.3679 H         1 UNK         0.0906 
     73 H73        30.3258   -6.6541    0.3006 H         1 UNK         0.0906 
     74 H74        28.9563   -7.1044    1.3199 H         1 UNK         0.0906 
     75 H75        27.7894   -4.6194   -0.5243 H         1 UNK         0.3140 
     76 H76        27.8809   -2.7259    1.5968 H         1 UNK         0.1085 
     77 H77        28.9405   -0.8213    0.4759 H         1 UNK         0.0836 
     78 H78        30.0872   -2.0963    0.7286 H         1 UNK         0.0836 
     79 H79        31.8780   -2.5107   -1.1970 H         1 UNK         0.0731 
     80 H80        30.7673   -3.8646   -1.1936 H         1 UNK         0.0731 
     81 H81        33.2801   -2.3216   -3.1298 H         1 UNK         0.1312 
     82 H82        32.0065   -3.8309   -6.9330 H         1 UNK         0.1406 
     83 H83        29.4531   -4.2124   -3.5100 H         1 UNK         0.1631 
     84 H84        29.3884   -5.7144   -6.0289 H         1 UNK         0.0717 
     85 H85        29.7664   -4.5328   -7.2608 H         1 UNK         0.0717 
     86 H86        28.1852   -1.7519   -4.7499 H         1 UNK         0.0934 
     87 H87        29.4070   -1.9463   -5.9695 H         1 UNK         0.0934 
     88 H88        27.7222   -1.5162   -7.7652 H         1 UNK         0.0739 
     89 H89        25.8289   -1.5010   -5.6056 H         1 UNK         0.3093 
     90 H90        23.2033    0.0716   -7.4404 H         1 UNK         0.0818 
     91 H91        22.0376   -2.0866   -7.0568 H         1 UNK         0.0819 
     92 H92        23.2042   -2.2574   -8.3567 H         1 UNK         0.0819 
     93 H93        23.5757   -2.8999   -6.7629 H         1 UNK         0.0819 
     94 H94        23.1616   -1.2297   -4.9255 H         1 UNK         0.3041 
     95 H95        24.5293    1.3443   -2.9142 H         1 UNK         0.0784 
     96 H96        22.2264    2.2131   -3.3643 H         1 UNK         0.0793 
     97 H97        21.5761    0.5832   -3.2569 H         1 UNK         0.0793 
     98 H98        22.2953    1.3483   -1.8389 H         1 UNK         0.0793 
     99 H99        23.1752   -1.0097   -2.1552 H         1 UNK         0.3024 
    100 H100       24.2847   -2.7185   -1.2628 H         1 UNK         0.1171 
    101 H101       24.8437   -4.8001   -2.5246 H         1 UNK         0.0786 
    102 H102       25.6656   -3.8529   -3.7636 H         1 UNK         0.0786 
    103 H103       23.9292   -3.6974   -3.5382 H         1 UNK         0.0786 
    104 H104       27.0809   -3.4062   -1.8113 H         1 UNK         0.2977 
    105 H105       26.5682    1.0885   -5.7495 H         1 UNK         0.3127 
    106 H106       28.9796    2.7231   -6.0240 H         1 UNK         0.0770 
    107 H107       26.1331    3.5568   -5.2641 H         1 UNK         0.0814 
    108 H108       27.6011    4.4921   -5.0469 H         1 UNK         0.0814 
    109 H109       27.3628    3.0204   -4.1177 H         1 UNK         0.0814 
    110 H110       26.2083    1.9253   -7.9946 H         1 UNK         0.2983 
    111 H111       26.6846    4.1934   -9.8694 H         1 UNK         0.0947 
    112 H112       24.5286    3.4536  -10.8728 H         1 UNK         0.0806 
    113 H113       24.3365    3.8339   -9.1692 H         1 UNK         0.0806 
    114 H114       24.3997    2.1539   -9.6949 H         1 UNK         0.0806 
    115 H115       26.3446    0.5966   -9.8125 H         1 UNK         0.3000 
    116 H116       27.0671    0.3119  -12.5754 H         1 UNK         0.0850 
    117 H117       26.9210   -2.1302  -12.0632 H         1 UNK         0.0810 
    118 H118       25.5214   -1.2521  -11.4688 H         1 UNK         0.0810 
    119 H119       26.7720   -1.7745  -10.3473 H         1 UNK         0.0810 
    120 H120       28.7830   -0.8006   -9.6071 H         1 UNK         0.3040 
    121 H121       31.2105   -1.3791  -11.1306 H         1 UNK         0.0766 
    122 H122       32.0244   -2.2970   -9.0154 H         1 UNK         0.0812 
    123 H123       30.3915   -2.8777   -9.2857 H         1 UNK         0.0812 
    124 H124       30.6930   -1.5911   -8.1170 H         1 UNK         0.0812 
    125 H125       30.0239    1.1626   -9.0704 H         1 UNK         0.3205 
    126 H126       30.6810    3.1770   -8.4719 H         1 UNK         0.0754 
    127 H127       32.4296    4.4377   -9.6367 H         1 UNK         0.0769 
    128 H128       31.4784    3.5540  -10.8186 H         1 UNK         0.0769 
    129 H129       33.0812    2.9768  -10.3610 H         1 UNK         0.0769 
    130 H130       31.2767    0.9154   -6.9442 H         1 UNK         0.2981 
    131 H131       33.2138    2.0675   -5.1315 H         1 UNK         0.0541 
    132 H132       30.2412    0.4831   -5.4432 H         1 UNK         0.3459 
    133 H133       30.1679   -0.0174   -3.7678 H         1 UNK         0.3459 
    134 H134       34.6089   -0.0340   -4.8732 H         1 UNK         0.0612 
    135 H135       34.8647    0.8805   -6.3196 H         1 UNK         0.0612 
    136 H136       34.5246   -3.4383   -6.2900 H         1 UNK         0.0624 
    137 H137       34.8447   -2.3516   -4.9662 H         1 UNK         0.0624 
@<TRIPOS>BOND
     1    1    2 1    
     2    1   72 1    
     3    1   73 1    
     4    1   74 1    
     5    2    3 2    
     6    2    4 am   BACKBONE|DICT|INTERRES
     7    4    5 1    
     8    4   75 1    
     9    5    6 1    
    10    5   35 1    
    11    5   76 1    
    12    6    7 1    
    13    6   77 1    
    14    6   78 1    
    15    7    8 1    
    16    8    9 1    
    17    8   79 1    
    18    8   80 1    
    19    9   10 ar   
    20    9   14 ar   
    21   10   11 ar   
    22   10   81 1    
    23   11   12 ar   
    24   11   71 1    
    25   12   13 ar   
    26   12   82 1    
    27   13   14 ar   
    28   13   15 1    
    29   14   83 1    
    30   15   16 1    
    31   15   84 1    
    32   15   85 1    
    33   16   17 1    
    34   17   18 1    
    35   17   86 1    
    36   17   87 1    
    37   18   19 1    
    38   18   37 1    
    39   18   88 1    
    40   19   20 am   BACKBONE|DICT|INTERRES
    41   19   89 1    
    42   20   21 2    
    43   20   22 1    
    44   22   23 1    
    45   22   24 1    
    46   22   90 1    
    47   23   91 1    
    48   23   92 1    
    49   23   93 1    
    50   24   25 am   BACKBONE|DICT|INTERRES
    51   24   94 1    
    52   25   26 2    
    53   25   27 1    
    54   27   28 1    
    55   27   29 1    
    56   27   95 1    
    57   28   96 1    
    58   28   97 1    
    59   28   98 1    
    60   29   30 am   BACKBONE|DICT|INTERRES
    61   29   99 1    
    62   30   31 2    
    63   30   32 1    
    64   32   33 1    
    65   32   34 1    
    66   32  100 1    
    67   33  101 1    
    68   33  102 1    
    69   33  103 1    
    70   34   35 am   BACKBONE|DICT|INTERRES
    71   34  104 1    
    72   35   36 2    
    73   37   38 2    
    74   37   39 am   BACKBONE|DICT|INTERRES
    75   39   40 1    
    76   39  105 1    
    77   40   41 1    
    78   40   42 1    
    79   40  106 1    
    80   41  107 1    
    81   41  108 1    
    82   41  109 1    
    83   42   43 2    
    84   42   44 am   BACKBONE|DICT|INTERRES
    85   44   45 1    
    86   44  110 1    
    87   45   46 1    
    88   45   47 1    
    89   45  111 1    
    90   46  112 1    
    91   46  113 1    
    92   46  114 1    
    93   47   48 2    
    94   47   49 am   BACKBONE|DICT|INTERRES
    95   49   50 1    
    96   49  115 1    
    97   50   51 1    
    98   50   52 1    
    99   50  116 1    
   100   51  117 1    
   101   51  118 1    
   102   51  119 1    
   103   52   53 2    
   104   52   54 am   BACKBONE|DICT|INTERRES
   105   54   55 1    
   106   54  120 1    
   107   55   56 1    
   108   55   57 1    
   109   55  121 1    
   110   56  122 1    
   111   56  123 1    
   112   56  124 1    
   113   57   58 2    
   114   57   59 am   BACKBONE|DICT|INTERRES
   115   59   60 1    
   116   59  125 1    
   117   60   61 1    
   118   60   62 1    
   119   60  126 1    
   120   61  127 1    
   121   61  128 1    
   122   61  129 1    
   123   62   63 2    
   124   62   64 am   BACKBONE|DICT|INTERRES
   125   64   65 1    
   126   64  130 1    
   127   65   66 1    
   128   65   69 1    
   129   65  131 1    
   130   66   67 am   BACKBONE|DICT|INTERRES
   131   66   68 2    
   132   67  132 1    
   133   67  133 1    
   134   69   70 1    
   135   69  134 1    
   136   69  135 1    
   137   70   71 1    
   138   71  136 1    
   139   71  137 1    
@<TRIPOS>SUBSTRUCTURE
     1 UNK         1 GROUP             0       ****    0 ROOT    
