@<TRIPOS>MOLECULE
3R137
137   139    1
SMALL
USER_CHARGES


@<TRIPOS>ATOM
      1 CA         26.8217   -5.6090   -4.2872 C.3       0 UNK        -0.2020 
      2 C          26.0989   -4.5602   -3.4549 C.2       0 UNK         0.4855 
      3 O          24.8872   -4.3954   -3.5969 O.2       0 UNK        -0.5197 
      4 N          26.8293   -3.8563   -2.5812 N.am      1 UNK        -0.4892 
      5 CA         26.2964   -2.7991   -1.7180 C.3       1 UNK         0.0835 
      6 C6         27.1375   -2.6432   -0.4221 C.3       12 UNK        -0.0855 
      7 S7         28.7859   -1.8993   -0.6602 S.3       12 UNK        -0.2931 
      8 C8         29.8812   -3.3486   -0.7727 C.3       12 UNK         0.0378 
      9 C9         30.8679   -3.1863   -1.9201 C.ar      12 UNK        -0.0802 
     10 C10        31.8502   -2.1930   -1.8598 C.ar      12 UNK        -0.0944 
     11 C11        32.7619   -2.0270   -2.9058 C.ar      12 UNK        -0.0787 
     12 C12        32.6984   -2.8812   -4.0102 C.ar      12 UNK        -0.0862 
     13 C13        31.7013   -3.8558   -4.1003 C.ar      12 UNK        -0.0733 
     14 C14        30.7982   -4.0154   -3.0443 C.ar      12 UNK        -0.0832 
     15 C15        31.6008   -4.7267   -5.3452 C.3       12 UNK         0.0240 
     16 S16        30.9235   -3.8086   -6.7688 S.3       12 UNK        -0.2522 
     17 C17        29.1890   -3.5518   -6.2575 C.3       12 UNK        -0.0967 
     18 CA         28.5073   -2.3365   -6.9368 C.3       5 UNK         0.0660 
     19 N          27.0448   -2.4293   -6.8153 N.am      5 UNK        -0.4015 
     20 C          26.1133   -1.4792   -6.9778 C.2       4 UNK         0.4946 
     21 O          26.3502   -0.2787   -7.1068 O.2       4 UNK        -0.5353 
     22 CA         24.6526   -1.9414   -7.0290 C.3       4 UNK         0.0277 
     23 CB         24.4559   -3.4615   -7.2187 C.3       4 UNK        -0.1981 
     24 N          23.9793   -1.4940   -5.8168 N.am      4 UNK        -0.4209 
     25 C          22.6859   -1.1524   -5.7393 C.2       3 UNK         0.4942 
     26 O          21.9154   -1.1775   -6.7003 O.2       3 UNK        -0.5208 
     27 CA         22.1372   -0.7278   -4.3630 C.3       3 UNK         0.0250 
     28 CB         21.2543   -1.8404   -3.7731 C.3       3 UNK        -0.1990 
     29 N          23.1881   -0.4001   -3.3990 N.am      3 UNK        -0.4232 
     30 C          23.9249    0.7191   -3.4174 C.2       2 UNK         0.4993 
     31 O          23.7144    1.6580   -4.1831 O.2       2 UNK        -0.5286 
     32 CA         25.1015    0.8014   -2.4277 C.3       2 UNK         0.0209 
     33 CB         24.7938    1.7972   -1.2978 C.3       2 UNK        -0.1931 
     34 N          25.4595   -0.4966   -1.8411 N.am      2 UNK        -0.4546 
     35 C          26.0946   -1.4779   -2.4972 C.2       1 UNK         0.5154 
     36 O          26.4875   -1.3665   -3.6639 O.2       1 UNK        -0.5181 
     37 C          29.1495   -1.0037   -6.4935 C.2       5 UNK         0.5014 
     38 O          29.8864   -0.4057   -7.2802 O.2       5 UNK        -0.5248 
     39 N          28.8595   -0.5407   -5.2709 N.am      6 UNK        -0.4434 
     40 CA         29.4889    0.6591   -4.7103 C.3       6 UNK         0.0363 
     41 CB         29.3364    0.6590   -3.1839 C.3       6 UNK        -0.1936 
     42 C          28.9926    1.9841   -5.3166 C.2       6 UNK         0.5081 
     43 O          29.6667    2.9991   -5.1394 O.2       6 UNK        -0.5248 
     44 N          27.8474    1.9687   -6.0111 N.am      7 UNK        -0.4718 
     45 CA         27.2442    3.1469   -6.6365 C.3       7 UNK         0.0273 
     46 CB         25.8051    3.3119   -6.1240 C.3       7 UNK        -0.1935 
     47 C          27.2580    3.0443   -8.1665 C.2       7 UNK         0.5018 
     48 O          27.6677    3.9968   -8.8296 O.2       7 UNK        -0.5186 
     49 N          26.8010    1.9046   -8.7021 N.am      8 UNK        -0.4240 
     50 CA         26.6247    1.6709  -10.1362 C.3       8 UNK         0.0235 
     51 CB         25.6585    0.4941  -10.3535 C.3       8 UNK        -0.2000 
     52 C          27.9544    1.4234  -10.8590 C.2       8 UNK         0.4941 
     53 O          28.1827    2.0072  -11.9190 O.2       8 UNK        -0.5273 
     54 N          28.8055    0.5716  -10.2714 N.am      9 UNK        -0.4262 
     55 CA         30.1349    0.2482  -10.7971 C.3       9 UNK         0.0264 
     56 CB         30.4112   -1.2522  -10.5903 C.3       9 UNK        -0.1955 
     57 C          31.2421    1.0961  -10.1495 C.2       9 UNK         0.5031 
     58 O          32.3870    1.0097  -10.5947 O.2       9 UNK        -0.5390 
     59 N          30.9065    1.8592   -9.0961 N.am      10 UNK        -0.4204 
     60 CA         31.8092    2.6437   -8.2423 C.3       10 UNK         0.0237 
     61 CB         32.3423    3.8746   -9.0054 C.3       10 UNK        -0.1985 
     62 C          32.9291    1.7785   -7.6269 C.2       10 UNK         0.4970 
     63 O          34.0931    2.1822   -7.6303 O.2       10 UNK        -0.4914 
     64 N          32.5442    0.5835   -7.1598 N.am      11 UNK        -0.4285 
     65 CA         33.4061   -0.5136   -6.6942 C.3       11 UNK         0.1007 
     66 C          34.1738   -1.2682   -7.8222 C.2       11 UNK         0.5703 
     67 N          34.0024   -0.9501   -9.1000 N.am      11 UNK        -0.7361 
     68 O          34.9238   -2.1979   -7.5343 O.2       11 UNK        -0.4986 
     69 C69        34.3424   -0.1355   -5.5070 C.3       12 UNK        -0.0947 
     70 S70        33.4541    0.4260   -4.0142 S.3       12 UNK        -0.2240 
     71 C71        33.8072   -0.9226   -2.8370 C.3       12 UNK         0.0194 
     72 H72        27.9000   -5.5822   -4.1367 H         1 UNK         0.0906 
     73 H73        26.4684   -6.6037   -4.0170 H         1 UNK         0.0906 
     74 H74        26.6209   -5.4582   -5.3466 H         1 UNK         0.0906 
     75 H75        27.8279   -3.9825   -2.5364 H         1 UNK         0.3140 
     76 H76        25.2986   -3.1141   -1.4031 H         1 UNK         0.1085 
     77 H77        26.6014   -2.0173    0.2932 H         1 UNK         0.0836 
     78 H78        27.2404   -3.6085    0.0764 H         1 UNK         0.0836 
     79 H79        29.2984   -4.2624   -0.8939 H         1 UNK         0.0731 
     80 H80        30.4269   -3.4569    0.1657 H         1 UNK         0.0731 
     81 H81        31.8925   -1.5398   -0.9988 H         1 UNK         0.1312 
     82 H82        33.4106   -2.7756   -4.8153 H         1 UNK         0.1406 
     83 H83        30.0412   -4.7844   -3.1019 H         1 UNK         0.1631 
     84 H84        30.9861   -5.6086   -5.1579 H         1 UNK         0.0717 
     85 H85        32.5935   -5.0964   -5.6064 H         1 UNK         0.0717 
     86 H86        28.6575   -4.4699   -6.5109 H         1 UNK         0.0934 
     87 H87        29.1240   -3.4570   -5.1733 H         1 UNK         0.0934 
     88 H88        28.6954   -2.4181   -8.0089 H         1 UNK         0.0739 
     89 H89        26.6915   -3.3667   -6.7049 H         1 UNK         0.3093 
     90 H90        24.2134   -1.4342   -7.8911 H         1 UNK         0.0818 
     91 H91        23.4028   -3.6973   -7.3740 H         1 UNK         0.0819 
     92 H92        24.9913   -3.8285   -8.0956 H         1 UNK         0.0819 
     93 H93        24.7873   -4.0317   -6.3511 H         1 UNK         0.0819 
     94 H94        24.5671   -1.4040   -4.9969 H         1 UNK         0.3041 
     95 H95        21.5180    0.1589   -4.5162 H         1 UNK         0.0784 
     96 H96        20.4346   -2.0882   -4.4492 H         1 UNK         0.0793 
     97 H97        21.8214   -2.7564   -3.6001 H         1 UNK         0.0793 
     98 H98        20.8087   -1.5350   -2.8261 H         1 UNK         0.0793 
     99 H99        23.4145   -1.1092   -2.7178 H         1 UNK         0.3024 
    100 H100       25.9585    1.1767   -2.9917 H         1 UNK         0.1171 
    101 H101       23.9426    1.4766   -0.6959 H         1 UNK         0.0786 
    102 H102       25.6497    1.9200   -0.6337 H         1 UNK         0.0786 
    103 H103       24.5554    2.7828   -1.7004 H         1 UNK         0.0786 
    104 H104       25.1828   -0.6461   -0.8810 H         1 UNK         0.2977 
    105 H105       28.1587   -1.0099   -4.7030 H         1 UNK         0.3127 
    106 H106       30.5582    0.6044   -4.9242 H         1 UNK         0.0770 
    107 H107       28.2922    0.6372   -2.8761 H         1 UNK         0.0814 
    108 H108       29.7914    1.5464   -2.7420 H         1 UNK         0.0814 
    109 H109       29.8384   -0.2045   -2.7504 H         1 UNK         0.0814 
    110 H110       27.3743    1.0807   -6.1575 H         1 UNK         0.2983 
    111 H111       27.7956    4.0510   -6.3687 H         1 UNK         0.0947 
    112 H112       25.3238    4.1798   -6.5765 H         1 UNK         0.0806 
    113 H113       25.7850    3.4567   -5.0438 H         1 UNK         0.0806 
    114 H114       25.1905    2.4401   -6.3530 H         1 UNK         0.0806 
    115 H115       26.5203    1.1472   -8.0783 H         1 UNK         0.3000 
    116 H116       26.1700    2.5636  -10.5719 H         1 UNK         0.0850 
    117 H117       25.4698    0.3371  -11.4164 H         1 UNK         0.0810 
    118 H118       24.6952    0.6793   -9.8776 H         1 UNK         0.0810 
    119 H119       26.0552   -0.4391   -9.9525 H         1 UNK         0.0810 
    120 H120       28.5447    0.1411   -9.3946 H         1 UNK         0.3040 
    121 H121       30.1674    0.4443  -11.8710 H         1 UNK         0.0766 
    122 H122       30.4883   -1.5157   -9.5360 H         1 UNK         0.0812 
    123 H123       31.3525   -1.5409  -11.0598 H         1 UNK         0.0812 
    124 H124       29.6283   -1.8665  -11.0350 H         1 UNK         0.0812 
    125 H125       29.9431    1.8245   -8.7969 H         1 UNK         0.3205 
    126 H126       31.2096    3.0075   -7.4071 H         1 UNK         0.0754 
    127 H127       32.9269    4.5193   -8.3479 H         1 UNK         0.0769 
    128 H128       31.5256    4.4759   -9.4051 H         1 UNK         0.0769 
    129 H129       32.9862    3.5877   -9.8375 H         1 UNK         0.0769 
    130 H130       31.5611    0.3308   -7.2422 H         1 UNK         0.2981 
    131 H131       32.6945   -1.2506   -6.3254 H         1 UNK         0.0541 
    132 H132       33.4073   -0.1812   -9.3874 H         1 UNK         0.3459 
    133 H133       34.5073   -1.4711   -9.7984 H         1 UNK         0.3459 
    134 H134       35.0408    0.6485   -5.7998 H         1 UNK         0.0612 
    135 H135       34.9716   -0.9833   -5.2343 H         1 UNK         0.0612 
    136 H136       33.8327   -0.4933   -1.8344 H         1 UNK         0.0624 
    137 H137       34.8018   -1.3363   -3.0069 H         1 UNK         0.0624 
@<TRIPOS>BOND
     1    1    2 1    
     2    1   72 1    
     3    1   73 1    
     4    1   74 1    
     5    2    3 2    
     6    2    4 am   BACKBONE|DICT|INTERRES
     7    4    5 1    
     8    4   75 1    
     9    5    6 1    
    10    5   35 1    
    11    5   76 1    
    12    6    7 1    
    13    6   77 1    
    14    6   78 1    
    15    7    8 1    
    16    8    9 1    
    17    8   79 1    
    18    8   80 1    
    19    9   10 ar   
    20    9   14 ar   
    21   10   11 ar   
    22   10   81 1    
    23   11   12 ar   
    24   11   71 1    
    25   12   13 ar   
    26   12   82 1    
    27   13   14 ar   
    28   13   15 1    
    29   14   83 1    
    30   15   16 1    
    31   15   84 1    
    32   15   85 1    
    33   16   17 1    
    34   17   18 1    
    35   17   86 1    
    36   17   87 1    
    37   18   19 1    
    38   18   37 1    
    39   18   88 1    
    40   19   20 am   BACKBONE|DICT|INTERRES
    41   19   89 1    
    42   20   21 2    
    43   20   22 1    
    44   22   23 1    
    45   22   24 1    
    46   22   90 1    
    47   23   91 1    
    48   23   92 1    
    49   23   93 1    
    50   24   25 am   BACKBONE|DICT|INTERRES
    51   24   94 1    
    52   25   26 2    
    53   25   27 1    
    54   27   28 1    
    55   27   29 1    
    56   27   95 1    
    57   28   96 1    
    58   28   97 1    
    59   28   98 1    
    60   29   30 am   BACKBONE|DICT|INTERRES
    61   29   99 1    
    62   30   31 2    
    63   30   32 1    
    64   32   33 1    
    65   32   34 1    
    66   32  100 1    
    67   33  101 1    
    68   33  102 1    
    69   33  103 1    
    70   34   35 am   BACKBONE|DICT|INTERRES
    71   34  104 1    
    72   35   36 2    
    73   37   38 2    
    74   37   39 am   BACKBONE|DICT|INTERRES
    75   39   40 1    
    76   39  105 1    
    77   40   41 1    
    78   40   42 1    
    79   40  106 1    
    80   41  107 1    
    81   41  108 1    
    82   41  109 1    
    83   42   43 2    
    84   42   44 am   BACKBONE|DICT|INTERRES
    85   44   45 1    
    86   44  110 1    
    87   45   46 1    
    88   45   47 1    
    89   45  111 1    
    90   46  112 1    
    91   46  113 1    
    92   46  114 1    
    93   47   48 2    
    94   47   49 am   BACKBONE|DICT|INTERRES
    95   49   50 1    
    96   49  115 1    
    97   50   51 1    
    98   50   52 1    
    99   50  116 1    
   100   51  117 1    
   101   51  118 1    
   102   51  119 1    
   103   52   53 2    
   104   52   54 am   BACKBONE|DICT|INTERRES
   105   54   55 1    
   106   54  120 1    
   107   55   56 1    
   108   55   57 1    
   109   55  121 1    
   110   56  122 1    
   111   56  123 1    
   112   56  124 1    
   113   57   58 2    
   114   57   59 am   BACKBONE|DICT|INTERRES
   115   59   60 1    
   116   59  125 1    
   117   60   61 1    
   118   60   62 1    
   119   60  126 1    
   120   61  127 1    
   121   61  128 1    
   122   61  129 1    
   123   62   63 2    
   124   62   64 am   BACKBONE|DICT|INTERRES
   125   64   65 1    
   126   64  130 1    
   127   65   66 1    
   128   65   69 1    
   129   65  131 1    
   130   66   67 am   BACKBONE|DICT|INTERRES
   131   66   68 2    
   132   67  132 1    
   133   67  133 1    
   134   69   70 1    
   135   69  134 1    
   136   69  135 1    
   137   70   71 1    
   138   71  136 1    
   139   71  137 1    
@<TRIPOS>SUBSTRUCTURE
     1 UNK         1 GROUP             0       ****    0 ROOT    
