@<TRIPOS>MOLECULE
3R137
137   139    1
SMALL
USER_CHARGES


@<TRIPOS>ATOM
      1 CA         24.8017   -3.5163    0.9747 C.3       0 UNK        -0.2020 
      2 C          25.4350   -3.1266   -0.3527 C.2       0 UNK         0.4855 
      3 O          24.8360   -3.3609   -1.4014 O.2       0 UNK        -0.5197 
      4 N          26.6403   -2.5412   -0.3050 N.am      1 UNK        -0.4892 
      5 CA         27.4327   -2.0687   -1.4507 C.3       1 UNK         0.0835 
      6 C6         27.9223   -3.2044   -2.3895 C.3       12 UNK        -0.0855 
      7 S7         29.0434   -4.3532   -1.5213 S.3       12 UNK        -0.2931 
      8 C8         30.6877   -3.6991   -1.9961 C.3       12 UNK         0.0378 
      9 C9         31.1004   -3.9138   -3.4559 C.ar      12 UNK        -0.0802 
     10 C10        32.1968   -3.2024   -3.9593 C.ar      12 UNK        -0.0944 
     11 C11        32.6400   -3.4023   -5.2714 C.ar      12 UNK        -0.0787 
     12 C12        31.9547   -4.2964   -6.0998 C.ar      12 UNK        -0.0862 
     13 C13        30.8602   -5.0158   -5.6138 C.ar      12 UNK        -0.0733 
     14 C14        30.4512   -4.8320   -4.2909 C.ar      12 UNK        -0.0832 
     15 C15        30.1468   -6.0304   -6.4978 C.3       12 UNK         0.0240 
     16 S16        28.9706   -5.2564   -7.6527 S.3       12 UNK        -0.2522 
     17 C17        27.7062   -4.5615   -6.5300 C.3       12 UNK        -0.0967 
     18 CA         27.2199   -3.1583   -6.9664 C.3       5 UNK         0.0660 
     19 N          25.9652   -2.7966   -6.3019 N.am      5 UNK        -0.4015 
     20 C          25.2452   -1.6933   -6.5414 C.2       4 UNK         0.4946 
     21 O          25.6201   -0.7814   -7.2818 O.2       4 UNK        -0.5353 
     22 CA         23.8803   -1.5752   -5.8495 C.3       4 UNK         0.0277 
     23 CB         23.5900   -2.6683   -4.7987 C.3       4 UNK        -0.1981 
     24 N          23.8091   -0.2623   -5.2250 N.am      4 UNK        -0.4209 
     25 C          22.7147    0.4966   -5.0996 C.2       3 UNK         0.4942 
     26 O          21.6052    0.1696   -5.5251 O.2       3 UNK        -0.5208 
     27 CA         22.8925    1.8589   -4.3919 C.3       3 UNK         0.0250 
     28 CB         21.6354    2.2867   -3.6040 C.3       3 UNK        -0.1990 
     29 N          24.0969    1.9348   -3.5492 N.am      3 UNK        -0.4232 
     30 C          24.3828    1.1822   -2.4756 C.2       2 UNK         0.4993 
     31 O          23.6098    0.3708   -1.9619 O.2       2 UNK        -0.5286 
     32 CA         25.7836    1.3796   -1.8791 C.3       2 UNK         0.0209 
     33 CB         25.7363    2.3788   -0.7116 C.3       2 UNK        -0.1931 
     34 N          26.3690    0.1219   -1.4123 N.am      2 UNK        -0.4546 
     35 C          26.7319   -0.9087   -2.1907 C.2       1 UNK         0.5154 
     36 O          26.5822   -0.9387   -3.4173 O.2       1 UNK        -0.5181 
     37 C          28.3249   -2.0843   -6.8592 C.2       5 UNK         0.5014 
     38 O          28.9839   -1.8203   -7.8647 O.2       5 UNK        -0.5248 
     39 N          28.4813   -1.4369   -5.6923 N.am      6 UNK        -0.4434 
     40 CA         29.5007   -0.3966   -5.5060 C.3       6 UNK         0.0363 
     41 CB         29.7170   -0.0892   -4.0164 C.3       6 UNK        -0.1936 
     42 C          29.1739    0.8958   -6.2665 C.2       6 UNK         0.5081 
     43 O          30.0985    1.5913   -6.6819 O.2       6 UNK        -0.5248 
     44 N          27.8806    1.1892   -6.4562 N.am      7 UNK        -0.4718 
     45 CA         27.4172    2.3076   -7.2773 C.3       7 UNK         0.0273 
     46 CB         25.9654    2.6620   -6.9155 C.3       7 UNK        -0.1935 
     47 C          27.5586    1.9916   -8.7737 C.2       7 UNK         0.5018 
     48 O          28.0269    2.8445   -9.5274 O.2       7 UNK        -0.5186 
     49 N          27.1821    0.7657   -9.1661 N.am      8 UNK        -0.4240 
     50 CA         27.2658    0.2606  -10.5382 C.3       8 UNK         0.0235 
     51 CB         26.5454   -1.0941  -10.6325 C.3       8 UNK        -0.2000 
     52 C          28.7095    0.1486  -11.0571 C.2       8 UNK         0.4941 
     53 O          28.9852    0.5947  -12.1714 O.2       8 UNK        -0.5273 
     54 N          29.6036   -0.4305  -10.2440 N.am      9 UNK        -0.4262 
     55 CA         31.0228   -0.6071  -10.5666 C.3       9 UNK         0.0264 
     56 CB         31.5556   -1.8365   -9.8126 C.3       9 UNK        -0.1955 
     57 C          31.8836    0.6364  -10.2703 C.2       9 UNK         0.5031 
     58 O          33.0497    0.6513  -10.6676 O.2       9 UNK        -0.5390 
     59 N          31.3101    1.6437   -9.5922 N.am      10 UNK        -0.4204 
     60 CA         31.9365    2.8967   -9.1493 C.3       10 UNK         0.0237 
     61 CB         32.3260    3.7789  -10.3550 C.3       10 UNK        -0.1985 
     62 C          33.1002    2.6547   -8.1667 C.2       10 UNK         0.4970 
     63 O          34.1939    3.1943   -8.3468 O.2       10 UNK        -0.4914 
     64 N          32.8301    1.8368   -7.1442 N.am      11 UNK        -0.4285 
     65 CA         33.7655    1.4791   -6.0669 C.3       11 UNK         0.1007 
     66 C          33.8465    2.5402   -4.9325 C.2       11 UNK         0.5703 
     67 N          32.9504    3.5188   -4.8690 N.am      11 UNK        -0.7361 
     68 O          34.7476    2.4797   -4.0994 O.2       11 UNK        -0.4986 
     69 C69        33.4640    0.0708   -5.4878 C.3       12 UNK        -0.0947 
     70 S70        33.5315   -1.2288   -6.7636 S.3       12 UNK        -0.2240 
     71 C71        33.8989   -2.7126   -5.7805 C.3       12 UNK         0.0194 
     72 H72        25.4382   -3.2640    1.8226 H         1 UNK         0.0906 
     73 H73        23.8495   -3.0014    1.1003 H         1 UNK         0.0906 
     74 H74        24.6145   -4.5895    0.9994 H         1 UNK         0.0906 
     75 H75        27.0735   -2.4019    0.5978 H         1 UNK         0.3140 
     76 H76        28.3281   -1.6138   -1.0231 H         1 UNK         0.1085 
     77 H77        27.0793   -3.7684   -2.7911 H         1 UNK         0.0836 
     78 H78        28.4487   -2.8018   -3.2540 H         1 UNK         0.0836 
     79 H79        30.7214   -2.6353   -1.7570 H         1 UNK         0.0731 
     80 H80        31.4350   -4.1776   -1.3617 H         1 UNK         0.0731 
     81 H81        32.7275   -2.5117   -3.3181 H         1 UNK         0.1312 
     82 H82        32.2887   -4.4509   -7.1168 H         1 UNK         0.1406 
     83 H83        29.6252   -5.4196   -3.9171 H         1 UNK         0.1631 
     84 H84        29.6192   -6.7686   -5.8916 H         1 UNK         0.0717 
     85 H85        30.8858   -6.5881   -7.0749 H         1 UNK         0.0717 
     86 H86        26.8698   -5.2623   -6.5321 H         1 UNK         0.0934 
     87 H87        28.0641   -4.5350   -5.5019 H         1 UNK         0.0934 
     88 H88        26.9669   -3.2255   -8.0264 H         1 UNK         0.0739 
     89 H89        25.5870   -3.4732   -5.6559 H         1 UNK         0.3093 
     90 H90        23.1294   -1.6416   -6.6395 H         1 UNK         0.0818 
     91 H91        22.6122   -2.5179   -4.3406 H         1 UNK         0.0819 
     92 H92        23.5775   -3.6636   -5.2442 H         1 UNK         0.0819 
     93 H93        24.3269   -2.6622   -3.9941 H         1 UNK         0.0819 
     94 H94        24.6840    0.0832   -4.8561 H         1 UNK         0.3041 
     95 H95        23.0391    2.5872   -5.1909 H         1 UNK         0.0784 
     96 H96        20.7728    2.3829   -4.2646 H         1 UNK         0.0793 
     97 H97        21.3728    1.5609   -2.8338 H         1 UNK         0.0793 
     98 H98        21.7794    3.2527   -3.1203 H         1 UNK         0.0793 
     99 H99        24.7910    2.6011   -3.8584 H         1 UNK         0.3024 
    100 H100       26.4436    1.7785   -2.6531 H         1 UNK         0.1171 
    101 H101       25.1072    2.0171    0.1029 H         1 UNK         0.0786 
    102 H102       25.3307    3.3390   -1.0336 H         1 UNK         0.0786 
    103 H103       26.7317    2.5687   -0.3092 H         1 UNK         0.0786 
    104 H104       26.4869    0.0274   -0.4144 H         1 UNK         0.2977 
    105 H105       27.8327   -1.5972   -4.9292 H         1 UNK         0.3127 
    106 H106       30.4400   -0.7847   -5.9065 H         1 UNK         0.0770 
    107 H107       29.9603   -0.9868   -3.4510 H         1 UNK         0.0814 
    108 H108       28.8435    0.3820   -3.5698 H         1 UNK         0.0814 
    109 H109       30.5435    0.6088   -3.8814 H         1 UNK         0.0814 
    110 H110       27.1847    0.5245   -6.1470 H         1 UNK         0.2983 
    111 H111       28.0393    3.1798   -7.0619 H         1 UNK         0.0947 
    112 H112       25.6136    3.5058   -7.5105 H         1 UNK         0.0806 
    113 H113       25.8802    2.9494   -5.8684 H         1 UNK         0.0806 
    114 H114       25.2816    1.8324   -7.0958 H         1 UNK         0.0806 
    115 H115       26.7665    0.1460   -8.4739 H         1 UNK         0.3000 
    116 H116       26.7386    0.9696  -11.1801 H         1 UNK         0.0850 
    117 H117       26.5492   -1.4677  -11.6573 H         1 UNK         0.0810 
    118 H118       25.5042   -1.0128  -10.3196 H         1 UNK         0.0810 
    119 H119       27.0234   -1.8492  -10.0083 H         1 UNK         0.0810 
    120 H120       29.2921   -0.8217   -9.3542 H         1 UNK         0.3040 
    121 H121       31.1170   -0.8098  -11.6356 H         1 UNK         0.0766 
    122 H122       32.6088   -2.0126  -10.0348 H         1 UNK         0.0812 
    123 H123       31.0088   -2.7387  -10.0870 H         1 UNK         0.0812 
    124 H124       31.4663   -1.7123   -8.7339 H         1 UNK         0.0812 
    125 H125       30.3507    1.5158   -9.3003 H         1 UNK         0.3205 
    126 H126       31.1708    3.4342   -8.5876 H         1 UNK         0.0754 
    127 H127       32.6832    4.7549  -10.0242 H         1 UNK         0.0769 
    128 H128       31.4720    3.9516  -11.0100 H         1 UNK         0.0769 
    129 H129       33.1201    3.3279  -10.9507 H         1 UNK         0.0769 
    130 H130       31.8716    1.5138   -7.0316 H         1 UNK         0.2981 
    131 H131       34.7667    1.4379   -6.5001 H         1 UNK         0.0541 
    132 H132       32.2005    3.5670   -5.5399 H         1 UNK         0.3459 
    133 H133       33.0175    4.2037   -4.1330 H         1 UNK         0.3459 
    134 H134       32.4827    0.0454   -5.0174 H         1 UNK         0.0612 
    135 H135       34.1853   -0.1751   -4.7066 H         1 UNK         0.0612 
    136 H136       34.4562   -3.4077   -6.4102 H         1 UNK         0.0624 
    137 H137       34.5655   -2.4634   -4.9539 H         1 UNK         0.0624 
@<TRIPOS>BOND
     1    1    2 1    
     2    1   72 1    
     3    1   73 1    
     4    1   74 1    
     5    2    3 2    
     6    2    4 am   BACKBONE|DICT|INTERRES
     7    4    5 1    
     8    4   75 1    
     9    5    6 1    
    10    5   35 1    
    11    5   76 1    
    12    6    7 1    
    13    6   77 1    
    14    6   78 1    
    15    7    8 1    
    16    8    9 1    
    17    8   79 1    
    18    8   80 1    
    19    9   10 ar   
    20    9   14 ar   
    21   10   11 ar   
    22   10   81 1    
    23   11   12 ar   
    24   11   71 1    
    25   12   13 ar   
    26   12   82 1    
    27   13   14 ar   
    28   13   15 1    
    29   14   83 1    
    30   15   16 1    
    31   15   84 1    
    32   15   85 1    
    33   16   17 1    
    34   17   18 1    
    35   17   86 1    
    36   17   87 1    
    37   18   19 1    
    38   18   37 1    
    39   18   88 1    
    40   19   20 am   BACKBONE|DICT|INTERRES
    41   19   89 1    
    42   20   21 2    
    43   20   22 1    
    44   22   23 1    
    45   22   24 1    
    46   22   90 1    
    47   23   91 1    
    48   23   92 1    
    49   23   93 1    
    50   24   25 am   BACKBONE|DICT|INTERRES
    51   24   94 1    
    52   25   26 2    
    53   25   27 1    
    54   27   28 1    
    55   27   29 1    
    56   27   95 1    
    57   28   96 1    
    58   28   97 1    
    59   28   98 1    
    60   29   30 am   BACKBONE|DICT|INTERRES
    61   29   99 1    
    62   30   31 2    
    63   30   32 1    
    64   32   33 1    
    65   32   34 1    
    66   32  100 1    
    67   33  101 1    
    68   33  102 1    
    69   33  103 1    
    70   34   35 am   BACKBONE|DICT|INTERRES
    71   34  104 1    
    72   35   36 2    
    73   37   38 2    
    74   37   39 am   BACKBONE|DICT|INTERRES
    75   39   40 1    
    76   39  105 1    
    77   40   41 1    
    78   40   42 1    
    79   40  106 1    
    80   41  107 1    
    81   41  108 1    
    82   41  109 1    
    83   42   43 2    
    84   42   44 am   BACKBONE|DICT|INTERRES
    85   44   45 1    
    86   44  110 1    
    87   45   46 1    
    88   45   47 1    
    89   45  111 1    
    90   46  112 1    
    91   46  113 1    
    92   46  114 1    
    93   47   48 2    
    94   47   49 am   BACKBONE|DICT|INTERRES
    95   49   50 1    
    96   49  115 1    
    97   50   51 1    
    98   50   52 1    
    99   50  116 1    
   100   51  117 1    
   101   51  118 1    
   102   51  119 1    
   103   52   53 2    
   104   52   54 am   BACKBONE|DICT|INTERRES
   105   54   55 1    
   106   54  120 1    
   107   55   56 1    
   108   55   57 1    
   109   55  121 1    
   110   56  122 1    
   111   56  123 1    
   112   56  124 1    
   113   57   58 2    
   114   57   59 am   BACKBONE|DICT|INTERRES
   115   59   60 1    
   116   59  125 1    
   117   60   61 1    
   118   60   62 1    
   119   60  126 1    
   120   61  127 1    
   121   61  128 1    
   122   61  129 1    
   123   62   63 2    
   124   62   64 am   BACKBONE|DICT|INTERRES
   125   64   65 1    
   126   64  130 1    
   127   65   66 1    
   128   65   69 1    
   129   65  131 1    
   130   66   67 am   BACKBONE|DICT|INTERRES
   131   66   68 2    
   132   67  132 1    
   133   67  133 1    
   134   69   70 1    
   135   69  134 1    
   136   69  135 1    
   137   70   71 1    
   138   71  136 1    
   139   71  137 1    
@<TRIPOS>SUBSTRUCTURE
     1 UNK         1 GROUP             0       ****    0 ROOT    
