@<TRIPOS>MOLECULE
3R137
137   139    1
SMALL
USER_CHARGES


@<TRIPOS>ATOM
      1 CA         25.2427   -5.7952   -3.7314 C.3       0 UNK        -0.2020 
      2 C          25.3440   -4.6579   -2.7257 C.2       0 UNK         0.4855 
      3 O          24.3574   -4.3374   -2.0636 O.2       0 UNK        -0.5197 
      4 N          26.5323   -4.0563   -2.5994 N.am      1 UNK        -0.4892 
      5 CA         26.8237   -2.9635   -1.6665 C.3       1 UNK         0.0835 
      6 C6         28.3480   -2.7334   -1.5172 C.3       12 UNK        -0.0855 
      7 S7         29.2276   -4.2219   -0.9335 S.3       12 UNK        -0.2931 
      8 C8         30.9464   -3.8564   -1.4291 C.3       12 UNK         0.0378 
      9 C9         31.1039   -3.6649   -2.9337 C.ar      12 UNK        -0.0802 
     10 C10        31.6821   -2.4948   -3.4369 C.ar      12 UNK        -0.0944 
     11 C11        31.8162   -2.3030   -4.8157 C.ar      12 UNK        -0.0787 
     12 C12        31.3703   -3.2968   -5.6914 C.ar      12 UNK        -0.0862 
     13 C13        30.7779   -4.4649   -5.2033 C.ar      12 UNK        -0.0733 
     14 C14        30.6634   -4.6500   -3.8229 C.ar      12 UNK        -0.0832 
     15 C15        30.2514   -5.5262   -6.1617 C.3       12 UNK         0.0240 
     16 S16        29.0139   -4.8825   -7.3390 S.3       12 UNK        -0.2522 
     17 C17        27.7238   -4.1897   -6.2454 C.3       12 UNK        -0.0967 
     18 CA         27.2072   -2.8180   -6.7484 C.3       5 UNK         0.0660 
     19 N          25.8493   -2.5318   -6.2710 N.am      5 UNK        -0.4015 
     20 C          25.1049   -1.4768   -6.6318 C.2       4 UNK         0.4946 
     21 O          25.5080   -0.5761   -7.3698 O.2       4 UNK        -0.5353 
     22 CA         23.6848   -1.3803   -6.0644 C.3       4 UNK         0.0277 
     23 CB         23.1844   -2.6504   -5.3467 C.3       4 UNK        -0.1981 
     24 N          23.6600   -0.2576   -5.1365 N.am      4 UNK        -0.4209 
     25 C          22.7044    0.6763   -5.0649 C.2       3 UNK         0.4942 
     26 O          21.7075    0.6854   -5.7895 O.2       3 UNK        -0.5208 
     27 CA         22.8949    1.8087   -4.0313 C.3       3 UNK         0.0250 
     28 CB         21.5670    2.2143   -3.3558 C.3       3 UNK        -0.1990 
     29 N          23.9398    1.5518   -3.0274 N.am      3 UNK        -0.4232 
     30 C          23.9619    0.5798   -2.1025 C.2       2 UNK         0.4993 
     31 O          23.0572   -0.2377   -1.9223 O.2       2 UNK        -0.5286 
     32 CA         25.2240    0.5167   -1.2278 C.3       2 UNK         0.0209 
     33 CB         24.9366    1.0891    0.1701 C.3       2 UNK        -0.1931 
     34 N          25.7631   -0.8395   -1.0908 N.am      2 UNK        -0.4546 
     35 C          26.1419   -1.6473   -2.0924 C.2       1 UNK         0.5154 
     36 O          26.0560   -1.3591   -3.2926 O.2       1 UNK        -0.5181 
     37 C          28.2089   -1.6728   -6.4817 C.2       5 UNK         0.5014 
     38 O          29.0473   -1.4058   -7.3444 O.2       5 UNK        -0.5248 
     39 N          28.0662   -0.9713   -5.3436 N.am      6 UNK        -0.4434 
     40 CA         28.8756    0.2022   -4.9977 C.3       6 UNK         0.0363 
     41 CB         28.5171    0.7100   -3.5939 C.3       6 UNK        -0.1936 
     42 C          28.7589    1.3448   -6.0180 C.2       6 UNK         0.5081 
     43 O          29.7709    1.9548   -6.3631 O.2       6 UNK        -0.5248 
     44 N          27.5312    1.5927   -6.4908 N.am      7 UNK        -0.4718 
     45 CA         27.2261    2.6038   -7.4998 C.3       7 UNK         0.0273 
     46 CB         25.7483    3.0125   -7.3794 C.3       7 UNK        -0.1935 
     47 C          27.5417    2.1073   -8.9180 C.2       7 UNK         0.5018 
     48 O          28.0609    2.8811   -9.7223 O.2       7 UNK        -0.5186 
     49 N          27.2174    0.8367   -9.1991 N.am      8 UNK        -0.4240 
     50 CA         27.3895    0.2074  -10.5092 C.3       8 UNK         0.0235 
     51 CB         26.6372   -1.1320  -10.5490 C.3       8 UNK        -0.2000 
     52 C          28.8614    0.0182  -10.9066 C.2       8 UNK         0.4941 
     53 O          29.2202    0.3497  -12.0376 O.2       8 UNK        -0.5273 
     54 N          29.6841   -0.5116   -9.9893 N.am      9 UNK        -0.4262 
     55 CA         31.1107   -0.7455  -10.2304 C.3       9 UNK         0.0264 
     56 CB         31.6127   -1.8724   -9.3186 C.3       9 UNK        -0.1955 
     57 C          31.9591    0.5195  -10.0283 C.2       9 UNK         0.5031 
     58 O          32.9909    0.6464  -10.6888 O.2       9 UNK        -0.5390 
     59 N          31.5135    1.4178   -9.1332 N.am      10 UNK        -0.4204 
     60 CA         32.1405    2.6935   -8.7659 C.3       10 UNK         0.0237 
     61 CB         32.0469    3.6972   -9.9351 C.3       10 UNK        -0.1985 
     62 C          33.5773    2.5097   -8.2393 C.2       10 UNK         0.4970 
     63 O          34.5283    3.0027   -8.8497 O.2       10 UNK        -0.4914 
     64 N          33.7044    1.7827   -7.1200 N.am      11 UNK        -0.4285 
     65 CA         34.9888    1.4718   -6.4631 C.3       11 UNK         0.1007 
     66 C          35.7668    2.7062   -5.9152 C.2       11 UNK         0.5703 
     67 N          35.1283    3.8481   -5.6863 N.am      11 UNK        -0.7361 
     68 O          36.9728    2.6224   -5.6947 O.2       11 UNK        -0.4986 
     69 C69        34.8372    0.4088   -5.3414 C.3       12 UNK        -0.0947 
     70 S70        34.1186   -1.1768   -5.8941 S.3       12 UNK        -0.2240 
     71 C71        32.3916   -1.0003   -5.3540 C.3       12 UNK         0.0194 
     72 H72        26.2177   -6.0809   -4.1255 H         1 UNK         0.0906 
     73 H73        24.8056   -6.6737   -3.2573 H         1 UNK         0.0906 
     74 H74        24.6033   -5.5085   -4.5655 H         1 UNK         0.0906 
     75 H75        27.3222   -4.3822   -3.1346 H         1 UNK         0.3140 
     76 H76        26.4232   -3.2521   -0.6918 H         1 UNK         0.1085 
     77 H77        28.7700   -2.4184   -2.4731 H         1 UNK         0.0836 
     78 H78        28.5534   -1.9270   -0.8101 H         1 UNK         0.0836 
     79 H79        31.2857   -2.9725   -0.8865 H         1 UNK         0.0731 
     80 H80        31.5882   -4.6785   -1.1098 H         1 UNK         0.0731 
     81 H81        32.0183   -1.7254   -2.7553 H         1 UNK         0.1312 
     82 H82        31.4568   -3.1561   -6.7577 H         1 UNK         0.1406 
     83 H83        30.2137   -5.5538   -3.4341 H         1 UNK         0.1631 
     84 H84        29.8086   -6.3600   -5.6148 H         1 UNK         0.0717 
     85 H85        31.0894   -5.9390   -6.7247 H         1 UNK         0.0717 
     86 H86        26.9101   -4.9160   -6.2370 H         1 UNK         0.0934 
     87 H87        28.0775   -4.1206   -5.2165 H         1 UNK         0.0934 
     88 H88        27.1095   -2.8900   -7.8322 H         1 UNK         0.0739 
     89 H89        25.4474   -3.1908   -5.6230 H         1 UNK         0.3093 
     90 H90        23.0299   -1.1842   -6.9160 H         1 UNK         0.0818 
     91 H91        22.1371   -2.5430   -5.0633 H         1 UNK         0.0819 
     92 H92        23.2494   -3.5291   -5.9898 H         1 UNK         0.0819 
     93 H93        23.7438   -2.8482   -4.4324 H         1 UNK         0.0819 
     94 H94        24.4442   -0.2031   -4.4987 H         1 UNK         0.3041 
     95 H95        23.2421    2.6691   -4.6055 H         1 UNK         0.0784 
     96 H96        20.8410    2.5598   -4.0928 H         1 UNK         0.0793 
     97 H97        21.1121    1.3797   -2.8215 H         1 UNK         0.0793 
     98 H98        21.7148    3.0275   -2.6452 H         1 UNK         0.0793 
     99 H99        24.7323    2.1777   -3.0752 H         1 UNK         0.3024 
    100 H100       26.0030    1.1268   -1.6876 H         1 UNK         0.1171 
    101 H101       24.1909    0.4966    0.7022 H         1 UNK         0.0786 
    102 H102       24.5547    2.1090    0.1047 H         1 UNK         0.0786 
    103 H103       25.8388    1.1223    0.7812 H         1 UNK         0.0786 
    104 H104       25.8638   -1.1743   -0.1437 H         1 UNK         0.2977 
    105 H105       27.3256   -1.2238   -4.6932 H         1 UNK         0.3127 
    106 H106       29.9141   -0.1149   -4.9767 H         1 UNK         0.0770 
    107 H107       28.6977   -0.0492   -2.8350 H         1 UNK         0.0814 
    108 H108       27.4723    1.0126   -3.5347 H         1 UNK         0.0814 
    109 H109       29.1225    1.5775   -3.3273 H         1 UNK         0.0814 
    110 H110       26.7757    0.9771   -6.2214 H         1 UNK         0.2983 
    111 H111       27.8402    3.4877   -7.3114 H         1 UNK         0.0947 
    112 H112       25.4948    3.7768   -8.1153 H         1 UNK         0.0806 
    113 H113       25.5310    3.4270   -6.3950 H         1 UNK         0.0806 
    114 H114       25.0774    2.1678   -7.5426 H         1 UNK         0.0806 
    115 H115       26.7437    0.2886   -8.4840 H         1 UNK         0.3000 
    116 H116       26.9319    0.8679  -11.2490 H         1 UNK         0.0850 
    117 H117       26.6808   -1.5726  -11.5459 H         1 UNK         0.0810 
    118 H118       25.5845   -1.0059  -10.2948 H         1 UNK         0.0810 
    119 H119       27.0658   -1.8551   -9.8566 H         1 UNK         0.0810 
    120 H120       29.3227   -0.7804   -9.0747 H         1 UNK         0.3040 
    121 H121       31.2426   -1.0741  -11.2637 H         1 UNK         0.0766 
    122 H122       32.6427   -2.1401   -9.5574 H         1 UNK         0.0812 
    123 H123       31.0059   -2.7727   -9.4181 H         1 UNK         0.0812 
    124 H124       31.5919   -1.5641   -8.2762 H         1 UNK         0.0812 
    125 H125       30.6605    1.1993   -8.6357 H         1 UNK         0.3205 
    126 H126       31.5573    3.1053   -7.9415 H         1 UNK         0.0754 
    127 H127       32.4409    4.6719   -9.6449 H         1 UNK         0.0769 
    128 H128       31.0118    3.8444  -10.2448 H         1 UNK         0.0769 
    129 H129       32.6121    3.3636  -10.8060 H         1 UNK         0.0769 
    130 H130       32.8751    1.4164   -6.6788 H         1 UNK         0.2981 
    131 H131       35.6283    1.0378   -7.2341 H         1 UNK         0.0541 
    132 H132       34.1399    3.9275   -5.8614 H         1 UNK         0.3459 
    133 H133       35.6442    4.6392   -5.3349 H         1 UNK         0.3459 
    134 H134       34.2616    0.8129   -4.5074 H         1 UNK         0.0612 
    135 H135       35.8176    0.1683   -4.9256 H         1 UNK         0.0612 
    136 H136       32.3085   -0.2268   -4.5901 H         1 UNK         0.0624 
    137 H137       31.7964   -0.6516   -6.1977 H         1 UNK         0.0624 
@<TRIPOS>BOND
     1    1    2 1    
     2    1   72 1    
     3    1   73 1    
     4    1   74 1    
     5    2    3 2    
     6    2    4 am   BACKBONE|DICT|INTERRES
     7    4    5 1    
     8    4   75 1    
     9    5    6 1    
    10    5   35 1    
    11    5   76 1    
    12    6    7 1    
    13    6   77 1    
    14    6   78 1    
    15    7    8 1    
    16    8    9 1    
    17    8   79 1    
    18    8   80 1    
    19    9   10 ar   
    20    9   14 ar   
    21   10   11 ar   
    22   10   81 1    
    23   11   12 ar   
    24   11   71 1    
    25   12   13 ar   
    26   12   82 1    
    27   13   14 ar   
    28   13   15 1    
    29   14   83 1    
    30   15   16 1    
    31   15   84 1    
    32   15   85 1    
    33   16   17 1    
    34   17   18 1    
    35   17   86 1    
    36   17   87 1    
    37   18   19 1    
    38   18   37 1    
    39   18   88 1    
    40   19   20 am   BACKBONE|DICT|INTERRES
    41   19   89 1    
    42   20   21 2    
    43   20   22 1    
    44   22   23 1    
    45   22   24 1    
    46   22   90 1    
    47   23   91 1    
    48   23   92 1    
    49   23   93 1    
    50   24   25 am   BACKBONE|DICT|INTERRES
    51   24   94 1    
    52   25   26 2    
    53   25   27 1    
    54   27   28 1    
    55   27   29 1    
    56   27   95 1    
    57   28   96 1    
    58   28   97 1    
    59   28   98 1    
    60   29   30 am   BACKBONE|DICT|INTERRES
    61   29   99 1    
    62   30   31 2    
    63   30   32 1    
    64   32   33 1    
    65   32   34 1    
    66   32  100 1    
    67   33  101 1    
    68   33  102 1    
    69   33  103 1    
    70   34   35 am   BACKBONE|DICT|INTERRES
    71   34  104 1    
    72   35   36 2    
    73   37   38 2    
    74   37   39 am   BACKBONE|DICT|INTERRES
    75   39   40 1    
    76   39  105 1    
    77   40   41 1    
    78   40   42 1    
    79   40  106 1    
    80   41  107 1    
    81   41  108 1    
    82   41  109 1    
    83   42   43 2    
    84   42   44 am   BACKBONE|DICT|INTERRES
    85   44   45 1    
    86   44  110 1    
    87   45   46 1    
    88   45   47 1    
    89   45  111 1    
    90   46  112 1    
    91   46  113 1    
    92   46  114 1    
    93   47   48 2    
    94   47   49 am   BACKBONE|DICT|INTERRES
    95   49   50 1    
    96   49  115 1    
    97   50   51 1    
    98   50   52 1    
    99   50  116 1    
   100   51  117 1    
   101   51  118 1    
   102   51  119 1    
   103   52   53 2    
   104   52   54 am   BACKBONE|DICT|INTERRES
   105   54   55 1    
   106   54  120 1    
   107   55   56 1    
   108   55   57 1    
   109   55  121 1    
   110   56  122 1    
   111   56  123 1    
   112   56  124 1    
   113   57   58 2    
   114   57   59 am   BACKBONE|DICT|INTERRES
   115   59   60 1    
   116   59  125 1    
   117   60   61 1    
   118   60   62 1    
   119   60  126 1    
   120   61  127 1    
   121   61  128 1    
   122   61  129 1    
   123   62   63 2    
   124   62   64 am   BACKBONE|DICT|INTERRES
   125   64   65 1    
   126   64  130 1    
   127   65   66 1    
   128   65   69 1    
   129   65  131 1    
   130   66   67 am   BACKBONE|DICT|INTERRES
   131   66   68 2    
   132   67  132 1    
   133   67  133 1    
   134   69   70 1    
   135   69  134 1    
   136   69  135 1    
   137   70   71 1    
   138   71  136 1    
   139   71  137 1    
@<TRIPOS>SUBSTRUCTURE
     1 UNK         1 GROUP             0       ****    0 ROOT    
