@<TRIPOS>MOLECULE
3R137
137   139    1
SMALL
USER_CHARGES


@<TRIPOS>ATOM
      1 CA         25.5230   -2.6625   -7.3314 C.3       0 UNK        -0.2020 
      2 C          25.3204   -3.4267   -6.0342 C.2       0 UNK         0.4855 
      3 O          24.1866   -3.7392   -5.6683 O.2       0 UNK        -0.5197 
      4 N          26.4228   -3.7269   -5.3381 N.am      1 UNK        -0.4892 
      5 CA         26.4834   -4.4653   -4.0730 C.3       1 UNK         0.0835 
      6 C6         27.9467   -4.6857   -3.6234 C.3       12 UNK        -0.0855 
      7 S7         28.9376   -5.6143   -4.8442 S.3       12 UNK        -0.2931 
      8 C8         30.5418   -5.7331   -3.9858 C.3       12 UNK         0.0378 
      9 C9         31.1434   -4.3581   -3.7369 C.ar      12 UNK        -0.0802 
     10 C10        31.8451   -3.7004   -4.7491 C.ar      12 UNK        -0.0944 
     11 C11        32.3417   -2.4072   -4.5552 C.ar      12 UNK        -0.0787 
     12 C12        32.1271   -1.7733   -3.3228 C.ar      12 UNK        -0.0862 
     13 C13        31.4413   -2.4313   -2.2961 C.ar      12 UNK        -0.0733 
     14 C14        30.9658   -3.7271   -2.5044 C.ar      12 UNK        -0.0832 
     15 C15        31.1888   -1.7508   -0.9609 C.3       12 UNK         0.0240 
     16 S16        29.5307   -0.9988   -0.9086 S.3       12 UNK        -0.2522 
     17 C17        29.8178    0.5785   -1.7759 C.3       12 UNK        -0.0967 
     18 CA         29.1608    0.6522   -3.1805 C.3       5 UNK         0.0660 
     19 N          27.6993    0.5007   -3.1061 N.am      5 UNK        -0.4015 
     20 C          26.8671    0.2801   -4.1340 C.2       4 UNK         0.4946 
     21 O          27.2436    0.0768   -5.2939 O.2       4 UNK        -0.5353 
     22 CA         25.3628    0.3766   -3.8347 C.3       4 UNK         0.0277 
     23 CB         24.9964    1.7977   -3.3565 C.3       4 UNK        -0.1981 
     24 N          24.6418    0.0765   -5.0710 N.am      4 UNK        -0.4209 
     25 C          23.3936   -0.3753   -5.2464 C.2       3 UNK         0.4942 
     26 O          22.9392   -0.5638   -6.3738 O.2       3 UNK        -0.5208 
     27 CA         22.5246   -0.7159   -4.0235 C.3       3 UNK         0.0250 
     28 CB         21.0228   -0.8042   -4.3621 C.3       3 UNK        -0.1990 
     29 N          22.9716   -1.9895   -3.4650 N.am      3 UNK        -0.4232 
     30 C          22.9628   -2.2901   -2.1593 C.2       2 UNK         0.4993 
     31 O          22.5357   -1.5313   -1.2880 O.2       2 UNK        -0.5286 
     32 CA         23.5238   -3.6605   -1.7352 C.3       2 UNK         0.0209 
     33 CB         22.3782   -4.6557   -1.4867 C.3       2 UNK        -0.1931 
     34 N          24.4635   -4.2421   -2.6975 N.am      2 UNK        -0.4546 
     35 C          25.6788   -3.7481   -2.9693 C.2       1 UNK         0.5154 
     36 O          26.1532   -2.7573   -2.4110 O.2       1 UNK        -0.5181 
     37 C          29.5462    1.9705   -3.8975 C.2       5 UNK         0.5014 
     38 O          30.1059    2.8762   -3.2756 O.2       5 UNK        -0.5248 
     39 N          29.2037    2.0719   -5.1823 N.am      6 UNK        -0.4434 
     40 CA         29.3862    3.2382   -6.0377 C.3       6 UNK         0.0363 
     41 CB         28.1924    4.2002   -5.8593 C.3       6 UNK        -0.1936 
     42 C          29.5725    2.7573   -7.4825 C.2       6 UNK         0.5081 
     43 O          29.9906    1.6154   -7.6948 O.2       6 UNK        -0.5248 
     44 N          29.2672    3.6217   -8.4604 N.am      7 UNK        -0.4718 
     45 CA         29.4155    3.3737   -9.9013 C.3       7 UNK         0.0273 
     46 CB         28.9568    4.6149  -10.6823 C.3       7 UNK        -0.1935 
     47 C          28.6868    2.1176  -10.4102 C.2       7 UNK         0.5018 
     48 O          29.1997    1.4502  -11.3075 O.2       7 UNK        -0.5186 
     49 N          27.5517    1.7796   -9.7815 N.am      8 UNK        -0.4240 
     50 CA         26.7816    0.5543  -10.0188 C.3       8 UNK         0.0235 
     51 CB         25.4909    0.6050   -9.1844 C.3       8 UNK        -0.2000 
     52 C          27.5596   -0.7427   -9.7207 C.2       8 UNK         0.4941 
     53 O          27.2896   -1.7608  -10.3578 O.2       8 UNK        -0.5273 
     54 N          28.5073   -0.6816   -8.7752 N.am      9 UNK        -0.4262 
     55 CA         29.4016   -1.7795   -8.4014 C.3       9 UNK         0.0264 
     56 CB         29.4237   -1.8812   -6.8674 C.3       9 UNK        -0.1955 
     57 C          30.8287   -1.5836   -8.9513 C.2       9 UNK         0.5031 
     58 O          31.6864   -2.4250   -8.6834 O.2       9 UNK        -0.5390 
     59 N          31.0640   -0.4859   -9.6875 N.am      10 UNK        -0.4204 
     60 CA         32.3510   -0.0026  -10.2024 C.3       10 UNK         0.0237 
     61 CB         32.9900   -1.0156  -11.1776 C.3       10 UNK        -0.1985 
     62 C          33.3212    0.4812   -9.1017 C.2       10 UNK         0.4970 
     63 O          34.5363    0.3840   -9.2814 O.2       10 UNK        -0.4914 
     64 N          32.7749    1.0356   -8.0109 N.am      11 UNK        -0.4285 
     65 CA         33.5138    1.7177   -6.9308 C.3       11 UNK         0.1007 
     66 C          33.3097    3.2623   -6.9464 C.2       11 UNK         0.5703 
     67 N          32.7615    3.8505   -8.0034 N.am      11 UNK        -0.7361 
     68 O          33.6798    3.9514   -5.9992 O.2       11 UNK        -0.4986 
     69 C69        33.2119    1.0797   -5.5432 C.3       12 UNK        -0.0947 
     70 S70        34.2269   -0.4107   -5.2706 S.3       12 UNK        -0.2240 
     71 C71        33.0601   -1.7323   -5.7228 C.3       12 UNK         0.0194 
     72 H72        26.1176   -3.2455   -8.0346 H         1 UNK         0.0906 
     73 H73        24.5653   -2.4375   -7.8008 H         1 UNK         0.0906 
     74 H74        26.0351   -1.7201   -7.1419 H         1 UNK         0.0906 
     75 H75        27.3225   -3.4428   -5.6965 H         1 UNK         0.3140 
     76 H76        26.0341   -5.4460   -4.2438 H         1 UNK         0.1085 
     77 H77        27.9803   -5.2242   -2.6741 H         1 UNK         0.0836 
     78 H78        28.4240   -3.7192   -3.4510 H         1 UNK         0.0836 
     79 H79        31.2256   -6.3304   -4.5908 H         1 UNK         0.0731 
     80 H80        30.4129   -6.2738   -3.0467 H         1 UNK         0.0731 
     81 H81        31.9778   -4.1875   -5.7060 H         1 UNK         0.1312 
     82 H82        32.4824   -0.7664   -3.1581 H         1 UNK         0.1406 
     83 H83        30.4200   -4.2288   -1.7166 H         1 UNK         0.1631 
     84 H84        31.9553   -1.0034   -0.7507 H         1 UNK         0.0717 
     85 H85        31.2619   -2.4865   -0.1584 H         1 UNK         0.0717 
     86 H86        29.4386    1.3783   -1.1365 H         1 UNK         0.0934 
     87 H87        30.8929    0.7509   -1.8514 H         1 UNK         0.0934 
     88 H88        29.5547   -0.1701   -3.7823 H         1 UNK         0.0739 
     89 H89        27.3010    0.6413   -2.1897 H         1 UNK         0.3093 
     90 H90        25.1233   -0.3567   -3.0647 H         1 UNK         0.0818 
     91 H91        25.4585    2.0249   -2.3953 H         1 UNK         0.0819 
     92 H92        25.3331    2.5559   -4.0654 H         1 UNK         0.0819 
     93 H93        23.9235    1.9298   -3.2270 H         1 UNK         0.0819 
     94 H94        25.2328    0.1928   -5.8839 H         1 UNK         0.3041 
     95 H95        22.6490    0.0791   -3.2884 H         1 UNK         0.0784 
     96 H96        20.6704    0.1218   -4.8182 H         1 UNK         0.0793 
     97 H97        20.8131   -1.6153   -5.0606 H         1 UNK         0.0793 
     98 H98        20.4245   -0.9725   -3.4665 H         1 UNK         0.0793 
     99 H99        23.3574   -2.6568   -4.1285 H         1 UNK         0.3024 
    100 H100       24.0582   -3.5088   -0.7943 H         1 UNK         0.1171 
    101 H101       21.8154   -4.8592   -2.3986 H         1 UNK         0.0786 
    102 H102       22.7521   -5.6047   -1.1019 H         1 UNK         0.0786 
    103 H103       21.6744   -4.2649   -0.7502 H         1 UNK         0.0786 
    104 H104       24.1270   -5.0257   -3.2399 H         1 UNK         0.2977 
    105 H105       28.7253    1.2817   -5.6095 H         1 UNK         0.3127 
    106 H106       30.3075    3.7514   -5.7544 H         1 UNK         0.0770 
    107 H107       28.3443    5.1362   -6.3975 H         1 UNK         0.0814 
    108 H108       28.0530    4.4640   -4.8107 H         1 UNK         0.0814 
    109 H109       27.2608    3.7567   -6.2132 H         1 UNK         0.0814 
    110 H110       28.9333    4.5380   -8.1978 H         1 UNK         0.2983 
    111 H111       30.4791    3.2245  -10.0967 H         1 UNK         0.0947 
    112 H112       29.0747    4.4663  -11.7568 H         1 UNK         0.0806 
    113 H113       29.5444    5.4931  -10.4140 H         1 UNK         0.0806 
    114 H114       27.9062    4.8435  -10.4985 H         1 UNK         0.0806 
    115 H115       27.2162    2.3946   -9.0546 H         1 UNK         0.3000 
    116 H116       26.5094    0.5347  -11.0763 H         1 UNK         0.0850 
    117 H117       25.7024    0.6621   -8.1160 H         1 UNK         0.0810 
    118 H118       24.8826   -0.2857   -9.3492 H         1 UNK         0.0810 
    119 H119       24.8774    1.4655   -9.4519 H         1 UNK         0.0810 
    120 H120       28.6888    0.2043   -8.3142 H         1 UNK         0.3040 
    121 H121       29.0282   -2.7251   -8.7994 H         1 UNK         0.0766 
    122 H122       28.4206   -1.9902   -6.4617 H         1 UNK         0.0812 
    123 H123       29.8714   -0.9993   -6.4077 H         1 UNK         0.0812 
    124 H124       29.9946   -2.7509   -6.5452 H         1 UNK         0.0812 
    125 H125       30.2736    0.1150   -9.8849 H         1 UNK         0.3205 
    126 H126       32.1098    0.8876  -10.7851 H         1 UNK         0.0754 
    127 H127       33.8455   -0.5764  -11.6922 H         1 UNK         0.0769 
    128 H128       32.2810   -1.3308  -11.9431 H         1 UNK         0.0769 
    129 H129       33.3473   -1.9073  -10.6620 H         1 UNK         0.0769 
    130 H130       31.7617    1.1004   -7.9461 H         1 UNK         0.2981 
    131 H131       34.5852    1.6154   -7.1103 H         1 UNK         0.0541 
    132 H132       32.4990    3.3111   -8.8102 H         1 UNK         0.3459 
    133 H133       32.6586    4.8527   -8.0076 H         1 UNK         0.3459 
    134 H134       32.1502    0.8515   -5.4343 H         1 UNK         0.0612 
    135 H135       33.4543    1.7582   -4.7239 H         1 UNK         0.0612 
    136 H136       33.6175   -2.4806   -6.2883 H         1 UNK         0.0624 
    137 H137       32.3140   -1.3294   -6.4041 H         1 UNK         0.0624 
@<TRIPOS>BOND
     1    1    2 1    
     2    1   72 1    
     3    1   73 1    
     4    1   74 1    
     5    2    3 2    
     6    2    4 am   BACKBONE|DICT|INTERRES
     7    4    5 1    
     8    4   75 1    
     9    5    6 1    
    10    5   35 1    
    11    5   76 1    
    12    6    7 1    
    13    6   77 1    
    14    6   78 1    
    15    7    8 1    
    16    8    9 1    
    17    8   79 1    
    18    8   80 1    
    19    9   10 ar   
    20    9   14 ar   
    21   10   11 ar   
    22   10   81 1    
    23   11   12 ar   
    24   11   71 1    
    25   12   13 ar   
    26   12   82 1    
    27   13   14 ar   
    28   13   15 1    
    29   14   83 1    
    30   15   16 1    
    31   15   84 1    
    32   15   85 1    
    33   16   17 1    
    34   17   18 1    
    35   17   86 1    
    36   17   87 1    
    37   18   19 1    
    38   18   37 1    
    39   18   88 1    
    40   19   20 am   BACKBONE|DICT|INTERRES
    41   19   89 1    
    42   20   21 2    
    43   20   22 1    
    44   22   23 1    
    45   22   24 1    
    46   22   90 1    
    47   23   91 1    
    48   23   92 1    
    49   23   93 1    
    50   24   25 am   BACKBONE|DICT|INTERRES
    51   24   94 1    
    52   25   26 2    
    53   25   27 1    
    54   27   28 1    
    55   27   29 1    
    56   27   95 1    
    57   28   96 1    
    58   28   97 1    
    59   28   98 1    
    60   29   30 am   BACKBONE|DICT|INTERRES
    61   29   99 1    
    62   30   31 2    
    63   30   32 1    
    64   32   33 1    
    65   32   34 1    
    66   32  100 1    
    67   33  101 1    
    68   33  102 1    
    69   33  103 1    
    70   34   35 am   BACKBONE|DICT|INTERRES
    71   34  104 1    
    72   35   36 2    
    73   37   38 2    
    74   37   39 am   BACKBONE|DICT|INTERRES
    75   39   40 1    
    76   39  105 1    
    77   40   41 1    
    78   40   42 1    
    79   40  106 1    
    80   41  107 1    
    81   41  108 1    
    82   41  109 1    
    83   42   43 2    
    84   42   44 am   BACKBONE|DICT|INTERRES
    85   44   45 1    
    86   44  110 1    
    87   45   46 1    
    88   45   47 1    
    89   45  111 1    
    90   46  112 1    
    91   46  113 1    
    92   46  114 1    
    93   47   48 2    
    94   47   49 am   BACKBONE|DICT|INTERRES
    95   49   50 1    
    96   49  115 1    
    97   50   51 1    
    98   50   52 1    
    99   50  116 1    
   100   51  117 1    
   101   51  118 1    
   102   51  119 1    
   103   52   53 2    
   104   52   54 am   BACKBONE|DICT|INTERRES
   105   54   55 1    
   106   54  120 1    
   107   55   56 1    
   108   55   57 1    
   109   55  121 1    
   110   56  122 1    
   111   56  123 1    
   112   56  124 1    
   113   57   58 2    
   114   57   59 am   BACKBONE|DICT|INTERRES
   115   59   60 1    
   116   59  125 1    
   117   60   61 1    
   118   60   62 1    
   119   60  126 1    
   120   61  127 1    
   121   61  128 1    
   122   61  129 1    
   123   62   63 2    
   124   62   64 am   BACKBONE|DICT|INTERRES
   125   64   65 1    
   126   64  130 1    
   127   65   66 1    
   128   65   69 1    
   129   65  131 1    
   130   66   67 am   BACKBONE|DICT|INTERRES
   131   66   68 2    
   132   67  132 1    
   133   67  133 1    
   134   69   70 1    
   135   69  134 1    
   136   69  135 1    
   137   70   71 1    
   138   71  136 1    
   139   71  137 1    
@<TRIPOS>SUBSTRUCTURE
     1 UNK         1 GROUP             0       ****    0 ROOT    
