@<TRIPOS>MOLECULE
3R137
137   139    1
SMALL
USER_CHARGES


@<TRIPOS>ATOM
      1 CA         31.6319   -0.2800   -0.9532 C.3       0 UNK        -0.2020 
      2 C          30.5154   -1.1184   -1.5578 C.2       0 UNK         0.4855 
      3 O          29.8699   -0.6815   -2.5101 O.2       0 UNK        -0.5197 
      4 N          30.2898   -2.3190   -1.0101 N.am      1 UNK        -0.4892 
      5 CA         29.2570   -3.2651   -1.4474 C.3       1 UNK         0.0835 
      6 C6         29.4548   -4.6759   -0.8255 C.3       12 UNK        -0.0855 
      7 S7         31.1621   -5.3213   -0.9387 S.3       12 UNK        -0.2931 
      8 C8         31.1056   -6.3256   -2.4571 C.3       12 UNK         0.0378 
      9 C9         30.9452   -5.4577   -3.6957 C.ar      12 UNK        -0.0802 
     10 C10        31.9842   -4.6140   -4.0995 C.ar      12 UNK        -0.0944 
     11 C11        31.8312   -3.7770   -5.2086 C.ar      12 UNK        -0.0787 
     12 C12        30.6367   -3.8098   -5.9339 C.ar      12 UNK        -0.0862 
     13 C13        29.5949   -4.6600   -5.5468 C.ar      12 UNK        -0.0733 
     14 C14        29.7557   -5.4835   -4.4287 C.ar      12 UNK        -0.0832 
     15 C15        28.2866   -4.6875   -6.3221 C.3       12 UNK         0.0240 
     16 S16        27.0206   -3.6646   -5.5090 S.3       12 UNK        -0.2522 
     17 C17        27.5696   -1.9868   -5.9671 C.3       12 UNK        -0.0967 
     18 CA         26.5316   -1.2605   -6.8531 C.3       5 UNK         0.0660 
     19 N          25.2479   -1.0408   -6.1767 N.am      5 UNK        -0.4015 
     20 C          24.1198   -0.6686   -6.8042 C.2       4 UNK         0.4946 
     21 O          24.0617   -0.4485   -8.0151 O.2       4 UNK        -0.5353 
     22 CA         22.8379   -0.5041   -5.9655 C.3       4 UNK         0.0277 
     23 CB         21.9348   -1.7376   -6.1286 C.3       4 UNK        -0.1981 
     24 N          23.0815   -0.2773   -4.5405 N.am      4 UNK        -0.4209 
     25 C          23.6213    0.8327   -4.0175 C.2       3 UNK         0.4942 
     26 O          23.9308    1.8227   -4.6809 O.2       3 UNK        -0.5208 
     27 CA         23.9107    0.8103   -2.5033 C.3       3 UNK         0.0250 
     28 CB         22.7168    1.3777   -1.7189 C.3       3 UNK        -0.1990 
     29 N          24.2555   -0.5205   -1.9788 N.am      3 UNK        -0.4232 
     30 C          25.2855   -1.2604   -2.4135 C.2       2 UNK         0.4993 
     31 O          26.0303   -0.9059   -3.3277 O.2       2 UNK        -0.5286 
     32 CA         25.4643   -2.6506   -1.7854 C.3       2 UNK         0.0209 
     33 CB         24.5304   -3.6667   -2.4648 C.3       2 UNK        -0.1931 
     34 N          26.8491   -3.1088   -1.9290 N.am      2 UNK        -0.4546 
     35 C          27.8437   -2.7385   -1.1129 C.2       1 UNK         0.5154 
     36 O          27.6684   -2.0566   -0.0979 O.2       1 UNK        -0.5181 
     37 C          27.1355    0.0393   -7.4089 C.2       5 UNK         0.5014 
     38 O          27.8566   -0.0272   -8.4031 O.2       5 UNK        -0.5248 
     39 N          26.8128    1.1939   -6.8058 N.am      6 UNK        -0.4434 
     40 CA         27.3072    2.5182   -7.1988 C.3       6 UNK         0.0363 
     41 CB         26.7857    3.5674   -6.2052 C.3       6 UNK        -0.1936 
     42 C          26.9763    2.9295   -8.6469 C.2       6 UNK         0.5081 
     43 O          27.6793    3.7690   -9.2084 O.2       6 UNK        -0.5248 
     44 N          25.9381    2.3212   -9.2358 N.am      7 UNK        -0.4718 
     45 CA         25.5685    2.4871  -10.6418 C.3       7 UNK         0.0273 
     46 CB         24.1088    2.0385  -10.8221 C.3       7 UNK        -0.1935 
     47 C          26.4877    1.7240  -11.6172 C.2       7 UNK         0.5018 
     48 O          26.4682    2.0386  -12.8082 O.2       7 UNK        -0.5186 
     49 N          27.2452    0.7339  -11.1224 N.am      8 UNK        -0.4240 
     50 CA         28.0927   -0.1530  -11.9230 C.3       8 UNK         0.0235 
     51 CB         27.6137   -1.6040  -11.7423 C.3       8 UNK        -0.2000 
     52 C          29.5769   -0.0315  -11.5498 C.2       8 UNK         0.4941 
     53 O          30.4156    0.0444  -12.4488 O.2       8 UNK        -0.5273 
     54 N          29.8838   -0.0294  -10.2477 N.am      9 UNK        -0.4262 
     55 CA         31.2351   -0.0199   -9.6994 C.3       9 UNK         0.0264 
     56 CB         31.8143   -1.4495   -9.6966 C.3       9 UNK        -0.1955 
     57 C          31.1811    0.5834   -8.2929 C.2       9 UNK         0.5031 
     58 O          31.0304   -0.1499   -7.3133 O.2       9 UNK        -0.5390 
     59 N          31.2951    1.9148   -8.2127 N.am      10 UNK        -0.4204 
     60 CA         31.3474    2.6826   -6.9654 C.3       10 UNK         0.0237 
     61 CB         30.9777    4.1488   -7.2634 C.3       10 UNK        -0.1985 
     62 C          32.7209    2.5493   -6.2783 C.2       10 UNK         0.4970 
     63 O          33.4790    3.5190   -6.2168 O.2       10 UNK        -0.4914 
     64 N          33.0241    1.3390   -5.7975 N.am      11 UNK        -0.4285 
     65 CA         34.2671    0.9880   -5.0934 C.3       11 UNK         0.1007 
     66 C          34.4170    1.5823   -3.6603 C.2       11 UNK         0.5703 
     67 N          33.3857    2.1759   -3.0704 N.am      11 UNK        -0.7361 
     68 O          35.4984    1.5176   -3.0802 O.2       11 UNK        -0.4986 
     69 C69        34.5273   -0.5417   -5.1284 C.3       12 UNK        -0.0947 
     70 S70        33.1901   -1.5262   -4.3696 S.3       12 UNK        -0.2240 
     71 C71        32.9530   -2.8321   -5.6132 C.3       12 UNK         0.0194 
     72 H72        31.2712    0.7238   -0.7301 H         1 UNK         0.0906 
     73 H73        32.0150   -0.7150   -0.0302 H         1 UNK         0.0906 
     74 H74        32.4589   -0.1964   -1.6575 H         1 UNK         0.0906 
     75 H75        30.8507   -2.6279   -0.2294 H         1 UNK         0.3140 
     76 H76        29.3375   -3.3457   -2.5338 H         1 UNK         0.1085 
     77 H77        28.7717   -5.3926   -1.2854 H         1 UNK         0.0836 
     78 H78        29.1959   -4.6595    0.2355 H         1 UNK         0.0836 
     79 H79        32.0329   -6.8945   -2.5385 H         1 UNK         0.0731 
     80 H80        30.3020   -7.0598   -2.3804 H         1 UNK         0.0731 
     81 H81        32.9031   -4.5850   -3.5296 H         1 UNK         0.1312 
     82 H82        30.5179   -3.1637   -6.7930 H         1 UNK         0.1406 
     83 H83        28.9462   -6.1327   -4.1229 H         1 UNK         0.1631 
     84 H84        27.9215   -5.7136   -6.3868 H         1 UNK         0.0717 
     85 H85        28.4329   -4.3518   -7.3501 H         1 UNK         0.0717 
     86 H86        27.7847   -1.4217   -5.0592 H         1 UNK         0.0934 
     87 H87        28.5227   -2.0523   -6.4930 H         1 UNK         0.0934 
     88 H88        26.3336   -1.8981   -7.7179 H         1 UNK         0.0739 
     89 H89        25.2584   -1.1542   -5.1680 H         1 UNK         0.3093 
     90 H90        22.3049    0.3650   -6.3574 H         1 UNK         0.0818 
     91 H91        20.9840   -1.6060   -5.6116 H         1 UNK         0.0819 
     92 H92        21.7062   -1.9173   -7.1802 H         1 UNK         0.0819 
     93 H93        22.4085   -2.6401   -5.7400 H         1 UNK         0.0819 
     94 H94        22.8569   -1.0362   -3.9141 H         1 UNK         0.3041 
     95 H95        24.7716    1.4601   -2.3319 H         1 UNK         0.0784 
     96 H96        22.4548    2.3752   -2.0751 H         1 UNK         0.0793 
     97 H97        21.8296    0.7516   -1.8222 H         1 UNK         0.0793 
     98 H98        22.9449    1.4661   -0.6565 H         1 UNK         0.0793 
     99 H99        23.6721   -0.8790   -1.2357 H         1 UNK         0.3024 
    100 H100       25.2114   -2.5930   -0.7240 H         1 UNK         0.1171 
    101 H101       23.4836   -3.3939   -2.3253 H         1 UNK         0.0786 
    102 H102       24.6597   -4.6650   -2.0463 H         1 UNK         0.0786 
    103 H103       24.7094   -3.7292   -3.5389 H         1 UNK         0.0786 
    104 H104       27.0663   -3.6134   -2.7772 H         1 UNK         0.2977 
    105 H105       26.1888    1.1617   -6.0107 H         1 UNK         0.3127 
    106 H106       28.3939    2.4843   -7.1227 H         1 UNK         0.0770 
    107 H107       25.6960    3.6188   -6.2098 H         1 UNK         0.0814 
    108 H108       27.1615    4.5613   -6.4524 H         1 UNK         0.0814 
    109 H109       27.1067    3.3455   -5.1872 H         1 UNK         0.0814 
    110 H110       25.4149    1.6366   -8.7054 H         1 UNK         0.2983 
    111 H111       25.6345    3.5474  -10.8963 H         1 UNK         0.0947 
    112 H112       23.7822    2.1721  -11.8544 H         1 UNK         0.0806 
    113 H113       23.4341    2.6191  -10.1928 H         1 UNK         0.0806 
    114 H114       23.9773    0.9847  -10.5718 H         1 UNK         0.0806 
    115 H115       27.2429    0.5704  -10.1199 H         1 UNK         0.3000 
    116 H116       28.0086    0.0946  -12.9834 H         1 UNK         0.0850 
    117 H117       28.2318   -2.2949  -12.3175 H         1 UNK         0.0810 
    118 H118       26.5864   -1.7255  -12.0863 H         1 UNK         0.0810 
    119 H119       27.6552   -1.9185  -10.6985 H         1 UNK         0.0810 
    120 H120       29.1351   -0.0690   -9.5526 H         1 UNK         0.3040 
    121 H121       31.8777    0.6122  -10.3163 H         1 UNK         0.0766 
    122 H122       31.9270   -1.8347  -10.7100 H         1 UNK         0.0812 
    123 H123       31.1764   -2.1416   -9.1455 H         1 UNK         0.0812 
    124 H124       32.7998   -1.4703   -9.2298 H         1 UNK         0.0812 
    125 H125       31.4193    2.4400   -9.0666 H         1 UNK         0.3205 
    126 H126       30.6019    2.2833   -6.2745 H         1 UNK         0.0754 
    127 H127       30.9719    4.7429   -6.3485 H         1 UNK         0.0769 
    128 H128       29.9853    4.2308   -7.7058 H         1 UNK         0.0769 
    129 H129       31.6859    4.6143   -7.9501 H         1 UNK         0.0769 
    130 H130       32.3553    0.5869   -5.9318 H         1 UNK         0.2981 
    131 H131       35.0776    1.4452   -5.6642 H         1 UNK         0.0541 
    132 H132       32.4947    2.2304   -3.5354 H         1 UNK         0.3459 
    133 H133       33.5033    2.5684   -2.1502 H         1 UNK         0.3459 
    134 H134       35.4659   -0.7891   -4.6294 H         1 UNK         0.0612 
    135 H135       34.6565   -0.8562   -6.1651 H         1 UNK         0.0612 
    136 H136       32.7393   -2.3711   -6.5790 H         1 UNK         0.0624 
    137 H137       33.8800   -3.3951   -5.7296 H         1 UNK         0.0624 
@<TRIPOS>BOND
     1    1    2 1    
     2    1   72 1    
     3    1   73 1    
     4    1   74 1    
     5    2    3 2    
     6    2    4 am   BACKBONE|DICT|INTERRES
     7    4    5 1    
     8    4   75 1    
     9    5    6 1    
    10    5   35 1    
    11    5   76 1    
    12    6    7 1    
    13    6   77 1    
    14    6   78 1    
    15    7    8 1    
    16    8    9 1    
    17    8   79 1    
    18    8   80 1    
    19    9   10 ar   
    20    9   14 ar   
    21   10   11 ar   
    22   10   81 1    
    23   11   12 ar   
    24   11   71 1    
    25   12   13 ar   
    26   12   82 1    
    27   13   14 ar   
    28   13   15 1    
    29   14   83 1    
    30   15   16 1    
    31   15   84 1    
    32   15   85 1    
    33   16   17 1    
    34   17   18 1    
    35   17   86 1    
    36   17   87 1    
    37   18   19 1    
    38   18   37 1    
    39   18   88 1    
    40   19   20 am   BACKBONE|DICT|INTERRES
    41   19   89 1    
    42   20   21 2    
    43   20   22 1    
    44   22   23 1    
    45   22   24 1    
    46   22   90 1    
    47   23   91 1    
    48   23   92 1    
    49   23   93 1    
    50   24   25 am   BACKBONE|DICT|INTERRES
    51   24   94 1    
    52   25   26 2    
    53   25   27 1    
    54   27   28 1    
    55   27   29 1    
    56   27   95 1    
    57   28   96 1    
    58   28   97 1    
    59   28   98 1    
    60   29   30 am   BACKBONE|DICT|INTERRES
    61   29   99 1    
    62   30   31 2    
    63   30   32 1    
    64   32   33 1    
    65   32   34 1    
    66   32  100 1    
    67   33  101 1    
    68   33  102 1    
    69   33  103 1    
    70   34   35 am   BACKBONE|DICT|INTERRES
    71   34  104 1    
    72   35   36 2    
    73   37   38 2    
    74   37   39 am   BACKBONE|DICT|INTERRES
    75   39   40 1    
    76   39  105 1    
    77   40   41 1    
    78   40   42 1    
    79   40  106 1    
    80   41  107 1    
    81   41  108 1    
    82   41  109 1    
    83   42   43 2    
    84   42   44 am   BACKBONE|DICT|INTERRES
    85   44   45 1    
    86   44  110 1    
    87   45   46 1    
    88   45   47 1    
    89   45  111 1    
    90   46  112 1    
    91   46  113 1    
    92   46  114 1    
    93   47   48 2    
    94   47   49 am   BACKBONE|DICT|INTERRES
    95   49   50 1    
    96   49  115 1    
    97   50   51 1    
    98   50   52 1    
    99   50  116 1    
   100   51  117 1    
   101   51  118 1    
   102   51  119 1    
   103   52   53 2    
   104   52   54 am   BACKBONE|DICT|INTERRES
   105   54   55 1    
   106   54  120 1    
   107   55   56 1    
   108   55   57 1    
   109   55  121 1    
   110   56  122 1    
   111   56  123 1    
   112   56  124 1    
   113   57   58 2    
   114   57   59 am   BACKBONE|DICT|INTERRES
   115   59   60 1    
   116   59  125 1    
   117   60   61 1    
   118   60   62 1    
   119   60  126 1    
   120   61  127 1    
   121   61  128 1    
   122   61  129 1    
   123   62   63 2    
   124   62   64 am   BACKBONE|DICT|INTERRES
   125   64   65 1    
   126   64  130 1    
   127   65   66 1    
   128   65   69 1    
   129   65  131 1    
   130   66   67 am   BACKBONE|DICT|INTERRES
   131   66   68 2    
   132   67  132 1    
   133   67  133 1    
   134   69   70 1    
   135   69  134 1    
   136   69  135 1    
   137   70   71 1    
   138   71  136 1    
   139   71  137 1    
@<TRIPOS>SUBSTRUCTURE
     1 UNK         1 GROUP             0       ****    0 ROOT    
