@<TRIPOS>MOLECULE
3R137
137   139    1
SMALL
USER_CHARGES


@<TRIPOS>ATOM
      1 CA         23.8507   -5.7180   -4.3628 C.3       0 UNK        -0.2020 
      2 C          24.2963   -4.9335   -3.1385 C.2       0 UNK         0.4855 
      3 O          23.5211   -4.1423   -2.6000 O.2       0 UNK        -0.5197 
      4 N          25.5440   -5.1470   -2.7029 N.am      1 UNK        -0.4892 
      5 CA         26.2130   -4.4887   -1.5743 C.3       1 UNK         0.0835 
      6 C6         27.6349   -5.0678   -1.3066 C.3       12 UNK        -0.0855 
      7 S7         28.5450   -5.6470   -2.7899 S.3       12 UNK        -0.2931 
      8 C8         30.2617   -5.1691   -2.4206 C.3       12 UNK         0.0378 
      9 C9         30.5910   -3.7976   -2.9872 C.ar      12 UNK        -0.0802 
     10 C10        31.0266   -3.6724   -4.3088 C.ar      12 UNK        -0.0944 
     11 C11        31.3254   -2.4156   -4.8431 C.ar      12 UNK        -0.0787 
     12 C12        31.1869   -1.2757   -4.0458 C.ar      12 UNK        -0.0862 
     13 C13        30.7618   -1.3910   -2.7187 C.ar      12 UNK        -0.0733 
     14 C14        30.4695   -2.6547   -2.1950 C.ar      12 UNK        -0.0832 
     15 C15        30.6258   -0.1622   -1.8342 C.3       12 UNK         0.0240 
     16 S16        28.9009    0.0744   -1.3117 S.3       12 UNK        -0.2522 
     17 C17        28.3290    1.4364   -2.3741 C.3       12 UNK        -0.0967 
     18 CA         28.3837    1.1993   -3.9084 C.3       5 UNK         0.0660 
     19 N          27.7983   -0.0706   -4.3566 N.am      5 UNK        -0.4015 
     20 C          27.8391   -0.5207   -5.6236 C.2       4 UNK         0.4946 
     21 O          28.4724    0.0211   -6.5309 O.2       4 UNK        -0.5353 
     22 CA         26.9751   -1.7429   -5.9680 C.3       4 UNK         0.0277 
     23 CB         27.7412   -3.0538   -5.7312 C.3       4 UNK        -0.1981 
     24 N          25.7136   -1.7399   -5.2244 N.am      4 UNK        -0.4209 
     25 C          24.7022   -0.8927   -5.4743 C.2       3 UNK         0.4942 
     26 O          24.7074   -0.0797   -6.3977 O.2       3 UNK        -0.5208 
     27 CA         23.5042   -0.9128   -4.5095 C.3       3 UNK         0.0250 
     28 CB         22.4431   -1.9213   -4.9739 C.3       3 UNK        -0.1990 
     29 N          23.9007   -1.1950   -3.1280 N.am      3 UNK        -0.4232 
     30 C          24.6207   -0.3449   -2.3793 C.2       2 UNK         0.4993 
     31 O          24.9518    0.7782   -2.7593 O.2       2 UNK        -0.5286 
     32 CA         25.1016   -0.8372   -1.0025 C.3       2 UNK         0.0209 
     33 CB         24.0952   -0.4422    0.0893 C.3       2 UNK        -0.1931 
     34 N          25.3510   -2.2813   -0.9382 N.am      2 UNK        -0.4546 
     35 C          26.2038   -2.9534   -1.7259 C.2       1 UNK         0.5154 
     36 O          26.8986   -2.4139   -2.5865 O.2       1 UNK        -0.5181 
     37 C          27.7280    2.3987   -4.6206 C.2       5 UNK         0.5014 
     38 O          28.4408    3.2403   -5.1671 O.2       5 UNK        -0.5248 
     39 N          26.3864    2.4497   -4.5975 N.am      6 UNK        -0.4434 
     40 CA         25.5722    3.5155   -5.1885 C.3       6 UNK         0.0363 
     41 CB         24.0979    3.3125   -4.8051 C.3       6 UNK        -0.1936 
     42 C          25.7243    3.6240   -6.7136 C.2       6 UNK         0.5081 
     43 O          25.8368    4.7353   -7.2320 O.2       6 UNK        -0.5248 
     44 N          25.7471    2.4750   -7.4023 N.am      7 UNK        -0.4718 
     45 CA         25.9960    2.3879   -8.8435 C.3       7 UNK         0.0273 
     46 CB         25.5470    1.0059   -9.3459 C.3       7 UNK        -0.1935 
     47 C          27.4674    2.6315   -9.2242 C.2       7 UNK         0.5018 
     48 O          27.7334    2.9524  -10.3831 O.2       7 UNK        -0.5186 
     49 N          28.3845    2.4375   -8.2621 N.am      8 UNK        -0.4240 
     50 CA         29.8450    2.3972   -8.4067 C.3       8 UNK         0.0235 
     51 CB         30.4015    3.7910   -8.7642 C.3       8 UNK        -0.2000 
     52 C          30.2786    1.2920   -9.3894 C.2       8 UNK         0.4941 
     53 O          31.1324    1.5267  -10.2474 O.2       8 UNK        -0.5273 
     54 N          29.6353    0.1210   -9.2630 N.am      9 UNK        -0.4262 
     55 CA         29.6954   -1.0167  -10.1839 C.3       9 UNK         0.0264 
     56 CB         28.6571   -2.0633   -9.7417 C.3       9 UNK        -0.1955 
     57 C          31.1068   -1.6166  -10.2632 C.2       9 UNK         0.5031 
     58 O          31.4707   -2.4217   -9.4076 O.2       9 UNK        -0.5390 
     59 N          31.9006   -1.1494  -11.2364 N.am      10 UNK        -0.4204 
     60 CA         33.3384   -1.3884  -11.4461 C.3       10 UNK         0.0237 
     61 CB         33.6579   -2.8875  -11.6132 C.3       10 UNK        -0.1985 
     62 C          34.2489   -0.7356  -10.3853 C.2       10 UNK         0.4970 
     63 O          35.3655   -0.3412  -10.7236 O.2       10 UNK        -0.4914 
     64 N          33.7651   -0.6129   -9.1440 N.am      11 UNK        -0.4285 
     65 CA         34.4345    0.0517   -8.0166 C.3       11 UNK         0.1007 
     66 C          34.6041    1.5900   -8.1788 C.2       11 UNK         0.5703 
     67 N          33.8478    2.2594   -9.0417 N.am      11 UNK        -0.7361 
     68 O          35.4468    2.1851   -7.5116 O.2       11 UNK        -0.4986 
     69 C69        33.7545   -0.2819   -6.6611 C.3       12 UNK        -0.0947 
     70 S70        33.5993   -2.0794   -6.3765 S.3       12 UNK        -0.2240 
     71 C71        31.7933   -2.2982   -6.2835 C.3       12 UNK         0.0194 
     72 H72        23.9132   -5.0956   -5.2546 H         1 UNK         0.0906 
     73 H73        24.4681   -6.6023   -4.5207 H         1 UNK         0.0906 
     74 H74        22.8182   -6.0464   -4.2458 H         1 UNK         0.0906 
     75 H75        26.1460   -5.7780   -3.2153 H         1 UNK         0.3140 
     76 H76        25.6128   -4.7211   -0.6919 H         1 UNK         0.1085 
     77 H77        27.5406   -5.9339   -0.6496 H         1 UNK         0.0836 
     78 H78        28.2471   -4.3570   -0.7483 H         1 UNK         0.0836 
     79 H79        30.9307   -5.9120   -2.8577 H         1 UNK         0.0731 
     80 H80        30.4418   -5.2007   -1.3449 H         1 UNK         0.0731 
     81 H81        31.1257   -4.5562   -4.9241 H         1 UNK         0.1312 
     82 H82        31.4175   -0.3041   -4.4595 H         1 UNK         0.1406 
     83 H83        30.1329   -2.7427   -1.1712 H         1 UNK         0.1631 
     84 H84        30.9992    0.7338   -2.3319 H         1 UNK         0.0717 
     85 H85        31.2444   -0.2983   -0.9461 H         1 UNK         0.0717 
     86 H86        27.3114    1.6645   -2.0534 H         1 UNK         0.0934 
     87 H87        28.9164    2.3203   -2.1171 H         1 UNK         0.0934 
     88 H88        29.4324    1.1828   -4.2092 H         1 UNK         0.0739 
     89 H89        27.3334   -0.6357   -3.6543 H         1 UNK         0.3093 
     90 H90        26.7362   -1.6872   -7.0323 H         1 UNK         0.0818 
     91 H91        27.1305   -3.9241   -5.9702 H         1 UNK         0.0819 
     92 H92        28.6322   -3.0988   -6.3580 H         1 UNK         0.0819 
     93 H93        28.0776   -3.1528   -4.6996 H         1 UNK         0.0819 
     94 H94        25.6866   -2.3073   -4.3868 H         1 UNK         0.3041 
     95 H95        23.0497    0.0799   -4.5290 H         1 UNK         0.0784 
     96 H96        22.0877   -1.6760   -5.9756 H         1 UNK         0.0793 
     97 H97        22.8353   -2.9365   -5.0092 H         1 UNK         0.0793 
     98 H98        21.5764   -1.9193   -4.3126 H         1 UNK         0.0793 
     99 H99        23.6876   -2.1193   -2.7633 H         1 UNK         0.3024 
    100 H100       26.0461   -0.3324   -0.7942 H         1 UNK         0.1171 
    101 H101       24.4684   -0.6916    1.0828 H         1 UNK         0.0786 
    102 H102       23.9085    0.6327    0.0764 H         1 UNK         0.0786 
    103 H103       23.1351   -0.9418   -0.0461 H         1 UNK         0.0786 
    104 H104       24.7772   -2.8045   -0.2922 H         1 UNK         0.2977 
    105 H105       25.8820    1.7390   -4.0697 H         1 UNK         0.3127 
    106 H106       25.9084    4.4603   -4.7561 H         1 UNK         0.0770 
    107 H107       23.7067    2.3721   -5.1944 H         1 UNK         0.0814 
    108 H108       23.4764    4.1151   -5.2043 H         1 UNK         0.0814 
    109 H109       23.9657    3.3072   -3.7230 H         1 UNK         0.0814 
    110 H110       25.5711    1.5999   -6.9143 H         1 UNK         0.2983 
    111 H111       25.3957    3.1491   -9.3467 H         1 UNK         0.0947 
    112 H112       26.1069    0.2031   -8.8646 H         1 UNK         0.0806 
    113 H113       25.6974    0.9106  -10.4222 H         1 UNK         0.0806 
    114 H114       24.4879    0.8376   -9.1499 H         1 UNK         0.0806 
    115 H115       28.0441    2.1575   -7.3505 H         1 UNK         0.3000 
    116 H116       30.2438    2.1184   -7.4300 H         1 UNK         0.0850 
    117 H117       30.0588    4.5455   -8.0561 H         1 UNK         0.0810 
    118 H118       30.0992    4.1055   -9.7635 H         1 UNK         0.0810 
    119 H119       31.4909    3.7949   -8.7382 H         1 UNK         0.0810 
    120 H120       29.0298    0.0175   -8.4534 H         1 UNK         0.3040 
    121 H121       29.4129   -0.6615  -11.1770 H         1 UNK         0.0766 
    122 H122       28.6791   -2.9357  -10.3961 H         1 UNK         0.0812 
    123 H123       27.6456   -1.6588   -9.7744 H         1 UNK         0.0812 
    124 H124       28.8455   -2.4131   -8.7261 H         1 UNK         0.0812 
    125 H125       31.5130   -0.4154  -11.8153 H         1 UNK         0.3205 
    126 H126       33.5758   -0.8991  -12.3921 H         1 UNK         0.0754 
    127 H127       34.6991   -3.0306  -11.9049 H         1 UNK         0.0769 
    128 H128       33.0389   -3.3416  -12.3869 H         1 UNK         0.0769 
    129 H129       33.5047   -3.4455  -10.6890 H         1 UNK         0.0769 
    130 H130       32.8718   -1.0484   -8.9458 H         1 UNK         0.2981 
    131 H131       35.4466   -0.3555   -7.9781 H         1 UNK         0.0541 
    132 H132       33.9860    3.2518   -9.1418 H         1 UNK         0.3459 
    133 H133       33.1219    1.7967   -9.5747 H         1 UNK         0.3459 
    134 H134       34.3370    0.1287   -5.8344 H         1 UNK         0.0612 
    135 H135       32.7738    0.1929   -6.6018 H         1 UNK         0.0612 
    136 H136       31.5311   -3.2031   -6.8334 H         1 UNK         0.0624 
    137 H137       31.2678   -1.4843   -6.7850 H         1 UNK         0.0624 
@<TRIPOS>BOND
     1    1    2 1    
     2    1   72 1    
     3    1   73 1    
     4    1   74 1    
     5    2    3 2    
     6    2    4 am   BACKBONE|DICT|INTERRES
     7    4    5 1    
     8    4   75 1    
     9    5    6 1    
    10    5   35 1    
    11    5   76 1    
    12    6    7 1    
    13    6   77 1    
    14    6   78 1    
    15    7    8 1    
    16    8    9 1    
    17    8   79 1    
    18    8   80 1    
    19    9   10 ar   
    20    9   14 ar   
    21   10   11 ar   
    22   10   81 1    
    23   11   12 ar   
    24   11   71 1    
    25   12   13 ar   
    26   12   82 1    
    27   13   14 ar   
    28   13   15 1    
    29   14   83 1    
    30   15   16 1    
    31   15   84 1    
    32   15   85 1    
    33   16   17 1    
    34   17   18 1    
    35   17   86 1    
    36   17   87 1    
    37   18   19 1    
    38   18   37 1    
    39   18   88 1    
    40   19   20 am   BACKBONE|DICT|INTERRES
    41   19   89 1    
    42   20   21 2    
    43   20   22 1    
    44   22   23 1    
    45   22   24 1    
    46   22   90 1    
    47   23   91 1    
    48   23   92 1    
    49   23   93 1    
    50   24   25 am   BACKBONE|DICT|INTERRES
    51   24   94 1    
    52   25   26 2    
    53   25   27 1    
    54   27   28 1    
    55   27   29 1    
    56   27   95 1    
    57   28   96 1    
    58   28   97 1    
    59   28   98 1    
    60   29   30 am   BACKBONE|DICT|INTERRES
    61   29   99 1    
    62   30   31 2    
    63   30   32 1    
    64   32   33 1    
    65   32   34 1    
    66   32  100 1    
    67   33  101 1    
    68   33  102 1    
    69   33  103 1    
    70   34   35 am   BACKBONE|DICT|INTERRES
    71   34  104 1    
    72   35   36 2    
    73   37   38 2    
    74   37   39 am   BACKBONE|DICT|INTERRES
    75   39   40 1    
    76   39  105 1    
    77   40   41 1    
    78   40   42 1    
    79   40  106 1    
    80   41  107 1    
    81   41  108 1    
    82   41  109 1    
    83   42   43 2    
    84   42   44 am   BACKBONE|DICT|INTERRES
    85   44   45 1    
    86   44  110 1    
    87   45   46 1    
    88   45   47 1    
    89   45  111 1    
    90   46  112 1    
    91   46  113 1    
    92   46  114 1    
    93   47   48 2    
    94   47   49 am   BACKBONE|DICT|INTERRES
    95   49   50 1    
    96   49  115 1    
    97   50   51 1    
    98   50   52 1    
    99   50  116 1    
   100   51  117 1    
   101   51  118 1    
   102   51  119 1    
   103   52   53 2    
   104   52   54 am   BACKBONE|DICT|INTERRES
   105   54   55 1    
   106   54  120 1    
   107   55   56 1    
   108   55   57 1    
   109   55  121 1    
   110   56  122 1    
   111   56  123 1    
   112   56  124 1    
   113   57   58 2    
   114   57   59 am   BACKBONE|DICT|INTERRES
   115   59   60 1    
   116   59  125 1    
   117   60   61 1    
   118   60   62 1    
   119   60  126 1    
   120   61  127 1    
   121   61  128 1    
   122   61  129 1    
   123   62   63 2    
   124   62   64 am   BACKBONE|DICT|INTERRES
   125   64   65 1    
   126   64  130 1    
   127   65   66 1    
   128   65   69 1    
   129   65  131 1    
   130   66   67 am   BACKBONE|DICT|INTERRES
   131   66   68 2    
   132   67  132 1    
   133   67  133 1    
   134   69   70 1    
   135   69  134 1    
   136   69  135 1    
   137   70   71 1    
   138   71  136 1    
   139   71  137 1    
@<TRIPOS>SUBSTRUCTURE
     1 UNK         1 GROUP             0       ****    0 ROOT    
