@<TRIPOS>MOLECULE
3R137
137   139    1
SMALL
USER_CHARGES


@<TRIPOS>ATOM
      1 CA         25.0842   -5.0610    1.6772 C.3       0 UNK        -0.2020 
      2 C          25.6276   -4.5358    0.3569 C.2       0 UNK         0.4855 
      3 O          25.0538   -4.8208   -0.6943 O.2       0 UNK        -0.5197 
      4 N          26.7231   -3.7634    0.4082 N.am      1 UNK        -0.4892 
      5 CA         27.4312   -3.1746   -0.7415 C.3       1 UNK         0.0835 
      6 C6         28.1603   -4.2370   -1.6128 C.3       12 UNK        -0.0855 
      7 S7         29.7367   -4.7016   -0.8175 S.3       12 UNK        -0.2931 
      8 C8         30.9132   -4.7221   -2.2162 C.3       12 UNK         0.0378 
      9 C9         30.9444   -3.4630   -3.0861 C.ar      12 UNK        -0.0802 
     10 C10        31.2034   -3.6063   -4.4509 C.ar      12 UNK        -0.0944 
     11 C11        31.2673   -2.4930   -5.2916 C.ar      12 UNK        -0.0787 
     12 C12        31.0311   -1.2190   -4.7659 C.ar      12 UNK        -0.0862 
     13 C13        30.7671   -1.0533   -3.4025 C.ar      12 UNK        -0.0733 
     14 C14        30.7456   -2.1772   -2.5651 C.ar      12 UNK        -0.0832 
     15 C15        30.5333    0.3396   -2.8269 C.3       12 UNK         0.0240 
     16 S16        28.8553    0.5084   -2.1395 S.3       12 UNK        -0.2522 
     17 C17        28.0585    1.7754   -3.1856 C.3       12 UNK        -0.0967 
     18 CA         27.8905    1.4200   -4.6870 C.3       5 UNK         0.0660 
     19 N          27.3847    0.0665   -4.9299 N.am      5 UNK        -0.4015 
     20 C          27.3316   -0.5142   -6.1392 C.2       4 UNK         0.4946 
     21 O          27.7458    0.0105   -7.1761 O.2       4 UNK        -0.5353 
     22 CA         26.6782   -1.9013   -6.2115 C.3       4 UNK         0.0277 
     23 CB         27.7027   -3.0007   -5.8929 C.3       4 UNK        -0.1981 
     24 N          25.5395   -2.0070   -5.2977 N.am      4 UNK        -0.4209 
     25 C          24.3177   -1.5194   -5.5538 C.2       3 UNK         0.4942 
     26 O          24.0109   -0.9666   -6.6090 O.2       3 UNK        -0.5208 
     27 CA         23.2613   -1.6441   -4.4404 C.3       3 UNK         0.0250 
     28 CB         22.5645   -3.0123   -4.5077 C.3       3 UNK        -0.1990 
     29 N          23.7993   -1.4360   -3.0935 N.am      3 UNK        -0.4232 
     30 C          24.3481   -0.2904   -2.6677 C.2       2 UNK         0.4993 
     31 O          24.4453    0.7218   -3.3584 O.2       2 UNK        -0.5286 
     32 CA         24.9366   -0.2739   -1.2497 C.3       2 UNK         0.0209 
     33 CB         23.8400    0.0411   -0.2200 C.3       2 UNK        -0.1931 
     34 N          25.6617   -1.4813   -0.8347 N.am      2 UNK        -0.4546 
     35 C          26.5738   -2.1690   -1.5413 C.2       1 UNK         0.5154 
     36 O          26.7821   -1.9961   -2.7431 O.2       1 UNK        -0.5181 
     37 C          27.0170    2.4788   -5.3940 C.2       5 UNK         0.5014 
     38 O          27.5555    3.3335   -6.0974 O.2       5 UNK        -0.5248 
     39 N          25.6874    2.3862   -5.2262 N.am      6 UNK        -0.4434 
     40 CA         24.6965    3.2769   -5.8415 C.3       6 UNK         0.0363 
     41 CB         23.3153    3.0275   -5.2155 C.3       6 UNK        -0.1936 
     42 C          24.6178    3.1430   -7.3707 C.2       6 UNK         0.5081 
     43 O          24.3516    4.1356   -8.0485 O.2       6 UNK        -0.5248 
     44 N          24.8791    1.9360   -7.8921 N.am      7 UNK        -0.4718 
     45 CA         25.0106    1.6654   -9.3273 C.3       7 UNK         0.0273 
     46 CB         24.9012    0.1511   -9.5693 C.3       7 UNK        -0.1935 
     47 C          26.3183    2.2095   -9.9339 C.2       7 UNK         0.5018 
     48 O          26.4295    2.2478  -11.1601 O.2       7 UNK        -0.5186 
     49 N          27.2752    2.6032   -9.0778 N.am      8 UNK        -0.4240 
     50 CA         28.6212    3.0848   -9.3966 C.3       8 UNK         0.0235 
     51 CB         28.5645    4.4459  -10.1230 C.3       8 UNK        -0.2000 
     52 C          29.4539    2.0271  -10.1423 C.2       8 UNK         0.4941 
     53 O          30.1218    2.3497  -11.1279 O.2       8 UNK        -0.5273 
     54 N          29.3877    0.7754   -9.6639 N.am      9 UNK        -0.4262 
     55 CA         30.1655   -0.3488  -10.1869 C.3       9 UNK         0.0264 
     56 CB         29.6501   -1.6523   -9.5588 C.3       9 UNK        -0.1955 
     57 C          31.6747   -0.1515   -9.9494 C.2       9 UNK         0.5031 
     58 O          32.0702    0.3765   -8.9058 O.2       9 UNK        -0.5390 
     59 N          32.4890   -0.5686  -10.9269 N.am      10 UNK        -0.4204 
     60 CA         33.9284   -0.2981  -11.0219 C.3       10 UNK         0.0237 
     61 CB         34.3582   -0.4400  -12.4952 C.3       10 UNK        -0.1985 
     62 C          34.8012   -1.1404  -10.0669 C.2       10 UNK         0.4970 
     63 O          35.7593   -1.7761  -10.5112 O.2       10 UNK        -0.4914 
     64 N          34.4704   -1.1167   -8.7725 N.am      11 UNK        -0.4285 
     65 CA         35.2553   -1.7371   -7.6917 C.3       11 UNK         0.1007 
     66 C          36.4294   -0.8533   -7.1781 C.2       11 UNK         0.5703 
     67 N          36.5572    0.4010   -7.5964 N.am      11 UNK        -0.7361 
     68 O          37.2523   -1.3208   -6.3942 O.2       11 UNK        -0.4986 
     69 C69        34.3533   -2.2078   -6.5231 C.3       12 UNK        -0.0947 
     70 S70        33.1788   -3.4989   -7.0492 S.3       12 UNK        -0.2240 
     71 C71        31.5809   -2.6757   -6.7697 C.3       12 UNK         0.0194 
     72 H72        25.0767   -6.1507    1.6717 H         1 UNK         0.0906 
     73 H73        25.6821   -4.7310    2.5266 H         1 UNK         0.0906 
     74 H74        24.0620   -4.7143    1.8267 H         1 UNK         0.0906 
     75 H75        27.1448   -3.5753    1.3081 H         1 UNK         0.3140 
     76 H76        28.1966   -2.5270   -0.3098 H         1 UNK         0.1085 
     77 H77        28.3709   -3.8706   -2.6170 H         1 UNK         0.0836 
     78 H78        27.5479   -5.1281   -1.7544 H         1 UNK         0.0836 
     79 H79        30.6751   -5.5918   -2.8309 H         1 UNK         0.0731 
     80 H80        31.9157   -4.8927   -1.8220 H         1 UNK         0.0731 
     81 H81        31.3741   -4.5908   -4.8651 H         1 UNK         0.1312 
     82 H82        31.0623   -0.3562   -5.4174 H         1 UNK         0.1406 
     83 H83        30.5570   -2.0470   -1.5086 H         1 UNK         0.1631 
     84 H84        30.7128    1.1117   -3.5759 H         1 UNK         0.0717 
     85 H85        31.2561    0.5173   -2.0296 H         1 UNK         0.0717 
     86 H86        27.0849    1.9759   -2.7341 H         1 UNK         0.0934 
     87 H87        28.6253    2.7030   -3.0841 H         1 UNK         0.0934 
     88 H88        28.8795    1.4653   -5.1476 H         1 UNK         0.0739 
     89 H89        27.0832   -0.4635   -4.1188 H         1 UNK         0.3093 
     90 H90        26.3240   -2.0550   -7.2331 H         1 UNK         0.0818 
     91 H91        27.2475   -3.9906   -5.9181 H         1 UNK         0.0819 
     92 H92        28.5089   -2.9968   -6.6255 H         1 UNK         0.0819 
     93 H93        28.1564   -2.8635   -4.9105 H         1 UNK         0.0819 
     94 H94        25.7453   -2.3447   -4.3621 H         1 UNK         0.3041 
     95 H95        22.5107   -0.8705   -4.6171 H         1 UNK         0.0784 
     96 H96        22.1397   -3.1851   -5.4977 H         1 UNK         0.0793 
     97 H97        23.2574   -3.8295   -4.3026 H         1 UNK         0.0793 
     98 H98        21.7463   -3.0770   -3.7902 H         1 UNK         0.0793 
     99 H99        23.7945   -2.2269   -2.4650 H         1 UNK         0.3024 
    100 H100       25.6623    0.5414   -1.2263 H         1 UNK         0.1171 
    101 H101       24.2613    0.2115    0.7710 H         1 UNK         0.0786 
    102 H102       23.2922    0.9441   -0.4947 H         1 UNK         0.0786 
    103 H103       23.1146   -0.7698   -0.1422 H         1 UNK         0.0786 
    104 H104       25.5643   -1.7372    0.1372 H         1 UNK         0.2977 
    105 H105       25.3133    1.6717   -4.6002 H         1 UNK         0.3127 
    106 H106       24.9912    4.3044   -5.6177 H         1 UNK         0.0770 
    107 H107       22.9761    2.0046   -5.3855 H         1 UNK         0.0814 
    108 H108       22.5657    3.6963   -5.6406 H         1 UNK         0.0814 
    109 H109       23.3306    3.2004   -4.1393 H         1 UNK         0.0814 
    110 H110       25.0447    1.1585   -7.2660 H         1 UNK         0.2983 
    111 H111       24.1851    2.1554   -9.8482 H         1 UNK         0.0947 
    112 H112       25.6908   -0.3970   -9.0544 H         1 UNK         0.0806 
    113 H113       24.9807   -0.0841  -10.6315 H         1 UNK         0.0806 
    114 H114       23.9425   -0.2369   -9.2255 H         1 UNK         0.0806 
    115 H115       27.0778    2.5217   -8.0874 H         1 UNK         0.3000 
    116 H116       29.1218    3.2434   -8.4402 H         1 UNK         0.0850 
    117 H117       27.9821    5.1724   -9.5562 H         1 UNK         0.0810 
    118 H118       28.1203    4.3594  -11.1151 H         1 UNK         0.0810 
    119 H119       29.5648    4.8613  -10.2506 H         1 UNK         0.0810 
    120 H120       28.8255    0.5953   -8.8368 H         1 UNK         0.3040 
    121 H121       29.9930   -0.3987  -11.2642 H         1 UNK         0.0766 
    122 H122       30.2910   -2.4991   -9.8080 H         1 UNK         0.0812 
    123 H123       28.6471   -1.8874   -9.9154 H         1 UNK         0.0812 
    124 H124       29.5979   -1.5783   -8.4738 H         1 UNK         0.0812 
    125 H125       32.0779   -1.0369  -11.7219 H         1 UNK         0.3205 
    126 H126       34.0884    0.7448  -10.7396 H         1 UNK         0.0754 
    127 H127       35.4091   -0.1773  -12.6257 H         1 UNK         0.0769 
    128 H128       33.7824    0.2216  -13.1429 H         1 UNK         0.0769 
    129 H129       34.2293   -1.4611  -12.8569 H         1 UNK         0.0769 
    130 H130       33.6566   -0.5710   -8.5011 H         1 UNK         0.2981 
    131 H131       35.7342   -2.6306   -8.0970 H         1 UNK         0.0541 
    132 H132       37.3272    0.9570   -7.2590 H         1 UNK         0.3459 
    133 H133       35.8891    0.7987   -8.2361 H         1 UNK         0.3459 
    134 H134       34.9527   -2.6336   -5.7165 H         1 UNK         0.0612 
    135 H135       33.8176   -1.3617   -6.0895 H         1 UNK         0.0612 
    136 H136       31.5873   -1.7161   -7.2851 H         1 UNK         0.0624 
    137 H137       30.7985   -3.2807   -7.2276 H         1 UNK         0.0624 
@<TRIPOS>BOND
     1    1    2 1    
     2    1   72 1    
     3    1   73 1    
     4    1   74 1    
     5    2    3 2    
     6    2    4 am   BACKBONE|DICT|INTERRES
     7    4    5 1    
     8    4   75 1    
     9    5    6 1    
    10    5   35 1    
    11    5   76 1    
    12    6    7 1    
    13    6   77 1    
    14    6   78 1    
    15    7    8 1    
    16    8    9 1    
    17    8   79 1    
    18    8   80 1    
    19    9   10 ar   
    20    9   14 ar   
    21   10   11 ar   
    22   10   81 1    
    23   11   12 ar   
    24   11   71 1    
    25   12   13 ar   
    26   12   82 1    
    27   13   14 ar   
    28   13   15 1    
    29   14   83 1    
    30   15   16 1    
    31   15   84 1    
    32   15   85 1    
    33   16   17 1    
    34   17   18 1    
    35   17   86 1    
    36   17   87 1    
    37   18   19 1    
    38   18   37 1    
    39   18   88 1    
    40   19   20 am   BACKBONE|DICT|INTERRES
    41   19   89 1    
    42   20   21 2    
    43   20   22 1    
    44   22   23 1    
    45   22   24 1    
    46   22   90 1    
    47   23   91 1    
    48   23   92 1    
    49   23   93 1    
    50   24   25 am   BACKBONE|DICT|INTERRES
    51   24   94 1    
    52   25   26 2    
    53   25   27 1    
    54   27   28 1    
    55   27   29 1    
    56   27   95 1    
    57   28   96 1    
    58   28   97 1    
    59   28   98 1    
    60   29   30 am   BACKBONE|DICT|INTERRES
    61   29   99 1    
    62   30   31 2    
    63   30   32 1    
    64   32   33 1    
    65   32   34 1    
    66   32  100 1    
    67   33  101 1    
    68   33  102 1    
    69   33  103 1    
    70   34   35 am   BACKBONE|DICT|INTERRES
    71   34  104 1    
    72   35   36 2    
    73   37   38 2    
    74   37   39 am   BACKBONE|DICT|INTERRES
    75   39   40 1    
    76   39  105 1    
    77   40   41 1    
    78   40   42 1    
    79   40  106 1    
    80   41  107 1    
    81   41  108 1    
    82   41  109 1    
    83   42   43 2    
    84   42   44 am   BACKBONE|DICT|INTERRES
    85   44   45 1    
    86   44  110 1    
    87   45   46 1    
    88   45   47 1    
    89   45  111 1    
    90   46  112 1    
    91   46  113 1    
    92   46  114 1    
    93   47   48 2    
    94   47   49 am   BACKBONE|DICT|INTERRES
    95   49   50 1    
    96   49  115 1    
    97   50   51 1    
    98   50   52 1    
    99   50  116 1    
   100   51  117 1    
   101   51  118 1    
   102   51  119 1    
   103   52   53 2    
   104   52   54 am   BACKBONE|DICT|INTERRES
   105   54   55 1    
   106   54  120 1    
   107   55   56 1    
   108   55   57 1    
   109   55  121 1    
   110   56  122 1    
   111   56  123 1    
   112   56  124 1    
   113   57   58 2    
   114   57   59 am   BACKBONE|DICT|INTERRES
   115   59   60 1    
   116   59  125 1    
   117   60   61 1    
   118   60   62 1    
   119   60  126 1    
   120   61  127 1    
   121   61  128 1    
   122   61  129 1    
   123   62   63 2    
   124   62   64 am   BACKBONE|DICT|INTERRES
   125   64   65 1    
   126   64  130 1    
   127   65   66 1    
   128   65   69 1    
   129   65  131 1    
   130   66   67 am   BACKBONE|DICT|INTERRES
   131   66   68 2    
   132   67  132 1    
   133   67  133 1    
   134   69   70 1    
   135   69  134 1    
   136   69  135 1    
   137   70   71 1    
   138   71  136 1    
   139   71  137 1    
@<TRIPOS>SUBSTRUCTURE
     1 UNK         1 GROUP             0       ****    0 ROOT    
