@<TRIPOS>MOLECULE
3R137
137   139    1
SMALL
USER_CHARGES


@<TRIPOS>ATOM
      1 CA         26.1727   -6.6535    1.4325 C.3       0 UNK        -0.2020 
      2 C          25.6593   -5.2243    1.3443 C.2       0 UNK         0.4855 
      3 O          24.4543   -4.9981    1.4566 O.2       0 UNK        -0.5197 
      4 N          26.5646   -4.2576    1.1460 N.am      1 UNK        -0.4892 
      5 CA         26.2603   -2.8274    1.0019 C.3       1 UNK         0.0835 
      6 C6         27.5183   -1.9412    1.2039 C.3       12 UNK        -0.0855 
      7 S7         28.9910   -2.4997    0.2748 S.3       12 UNK        -0.2931 
      8 C8         28.9728   -1.3505   -1.1322 C.3       12 UNK         0.0378 
      9 C9         30.0166   -1.7323   -2.1698 C.ar      12 UNK        -0.0802 
     10 C10        31.1600   -0.9489   -2.3546 C.ar      12 UNK        -0.0944 
     11 C11        32.1031   -1.2921   -3.3287 C.ar      12 UNK        -0.0787 
     12 C12        31.9003   -2.4315   -4.1141 C.ar      12 UNK        -0.0862 
     13 C13        30.7673   -3.2288   -3.9290 C.ar      12 UNK        -0.0733 
     14 C14        29.8267   -2.8696   -2.9591 C.ar      12 UNK        -0.0832 
     15 C15        30.5769   -4.4942   -4.7545 C.3       12 UNK         0.0240 
     16 S16        30.0215   -4.1458   -6.4529 S.3       12 UNK        -0.2522 
     17 C17        28.3383   -3.5050   -6.1662 C.3       12 UNK        -0.0967 
     18 CA         27.9894   -2.2973   -7.0658 C.3       5 UNK         0.0660 
     19 N          26.5612   -1.9951   -7.0192 N.am      5 UNK        -0.4015 
     20 C          25.9229   -1.2657   -7.9420 C.2       4 UNK         0.4946 
     21 O          26.4576   -0.8482   -8.9679 O.2       4 UNK        -0.5353 
     22 CA         24.4553   -0.9062   -7.6548 C.3       4 UNK         0.0277 
     23 CB         23.5179   -2.0084   -8.1714 C.3       4 UNK        -0.1981 
     24 N          24.1992   -0.6626   -6.2322 N.am      4 UNK        -0.4209 
     25 C          24.7356    0.3499   -5.5352 C.2       3 UNK         0.4942 
     26 O          25.4524    1.2154   -6.0358 O.2       3 UNK        -0.5208 
     27 CA         24.4689    0.3775   -4.0210 C.3       3 UNK         0.0250 
     28 CB         23.1791    1.1554   -3.7172 C.3       3 UNK        -0.1990 
     29 N          24.4000   -0.9521   -3.4042 N.am      3 UNK        -0.4232 
     30 C          25.3967   -1.8484   -3.3905 C.2       2 UNK         0.4993 
     31 O          26.4896   -1.6667   -3.9326 O.2       2 UNK        -0.5286 
     32 CA         25.1142   -3.1838   -2.6795 C.3       2 UNK         0.0209 
     33 CB         25.5574   -4.3764   -3.5454 C.3       2 UNK        -0.1931 
     34 N          25.7660   -3.2780   -1.3712 N.am      2 UNK        -0.4546 
     35 C          25.5163   -2.4945   -0.3109 C.2       1 UNK         0.5154 
     36 O          24.7106   -1.5628   -0.3243 O.2       1 UNK        -0.5181 
     37 C          28.8119   -1.0329   -6.7398 C.2       5 UNK         0.5014 
     38 O          29.7309   -0.6993   -7.4882 O.2       5 UNK        -0.5248 
     39 N          28.4341   -0.3359   -5.6581 N.am      6 UNK        -0.4434 
     40 CA         29.1089    0.8639   -5.1631 C.3       6 UNK         0.0363 
     41 CB         28.4757    1.3006   -3.8331 C.3       6 UNK        -0.1936 
     42 C          29.1129    2.0440   -6.1489 C.2       6 UNK         0.5081 
     43 O          30.1597    2.6650   -6.3348 O.2       6 UNK        -0.5248 
     44 N          27.9445    2.3595   -6.7242 N.am      7 UNK        -0.4718 
     45 CA         27.7301    3.5658   -7.5238 C.3       7 UNK         0.0273 
     46 CB         26.4557    4.2808   -7.0414 C.3       7 UNK        -0.1935 
     47 C          27.6510    3.2752   -9.0265 C.2       7 UNK         0.5018 
     48 O          28.3804    3.9085   -9.7897 O.2       7 UNK        -0.5186 
     49 N          26.7469    2.3717   -9.4367 N.am      8 UNK        -0.4240 
     50 CA         26.4210    2.1478  -10.8511 C.3       8 UNK         0.0235 
     51 CB         25.0518    1.4614  -10.9973 C.3       8 UNK        -0.2000 
     52 C          27.5258    1.3933  -11.6056 C.2       8 UNK         0.4941 
     53 O          27.9623    1.8627  -12.6577 O.2       8 UNK        -0.5273 
     54 N          27.9778    0.2598  -11.0512 N.am      9 UNK        -0.4262 
     55 CA         29.1334   -0.4894  -11.5588 C.3       9 UNK         0.0264 
     56 CB         29.1184   -1.9180  -10.9949 C.3       9 UNK        -0.1955 
     57 C          30.4665    0.2075  -11.2284 C.2       9 UNK         0.5031 
     58 O          31.3997    0.1192  -12.0278 O.2       9 UNK        -0.5390 
     59 N          30.4953    0.8967  -10.0778 N.am      10 UNK        -0.4204 
     60 CA         31.5881    1.6530   -9.4602 C.3       10 UNK         0.0237 
     61 CB         32.2097    2.6802  -10.4276 C.3       10 UNK        -0.1985 
     62 C          32.6582    0.7518   -8.8217 C.2       10 UNK         0.4970 
     63 O          33.0191   -0.2895   -9.3748 O.2       10 UNK        -0.4914 
     64 N          33.1670    1.1967   -7.6670 N.am      11 UNK        -0.4285 
     65 CA         34.2688    0.5639   -6.9268 C.3       11 UNK         0.1007 
     66 C          35.6073    0.5824   -7.7151 C.2       11 UNK         0.5703 
     67 N          36.4201   -0.4575   -7.5840 N.am      11 UNK        -0.7361 
     68 O          35.9337    1.5470   -8.4052 O.2       11 UNK        -0.4986 
     69 C69        34.4563    1.2097   -5.5290 C.3       12 UNK        -0.0947 
     70 S70        32.9654    1.0546   -4.4927 S.3       12 UNK        -0.2240 
     71 C71        33.3461   -0.4395   -3.5287 C.3       12 UNK         0.0194 
     72 H72        27.2557   -6.7059    1.3218 H         1 UNK         0.0906 
     73 H73        25.9094   -7.0878    2.3966 H         1 UNK         0.0906 
     74 H74        25.7220   -7.2629    0.6497 H         1 UNK         0.0906 
     75 H75        27.5453   -4.4926    1.0669 H         1 UNK         0.3140 
     76 H76        25.5618   -2.5715    1.8024 H         1 UNK         0.1085 
     77 H77        27.3049   -0.8939    0.9794 H         1 UNK         0.0836 
     78 H78        27.7889   -1.9544    2.2609 H         1 UNK         0.0836 
     79 H79        29.1387   -0.3346   -0.7701 H         1 UNK         0.0731 
     80 H80        27.9876   -1.3577   -1.5987 H         1 UNK         0.0731 
     81 H81        31.3143   -0.0661   -1.7492 H         1 UNK         0.1312 
     82 H82        32.6261   -2.7037   -4.8683 H         1 UNK         0.1406 
     83 H83        28.9449   -3.4769   -2.8081 H         1 UNK         0.1631 
     84 H84        29.8642   -5.1669   -4.2744 H         1 UNK         0.0717 
     85 H85        31.5215   -5.0381   -4.8006 H         1 UNK         0.0717 
     86 H86        27.6459   -4.3252   -6.3626 H         1 UNK         0.0934 
     87 H87        28.2025   -3.2484   -5.1174 H         1 UNK         0.0934 
     88 H88        28.2211   -2.5873   -8.0913 H         1 UNK         0.0739 
     89 H89        26.0765   -2.2377   -6.1675 H         1 UNK         0.3093 
     90 H90        24.2303    0.0148   -8.1968 H         1 UNK         0.0818 
     91 H91        22.4713   -1.7285   -8.0498 H         1 UNK         0.0819 
     92 H92        23.6806   -2.1897   -9.2350 H         1 UNK         0.0819 
     93 H93        23.6762   -2.9543   -7.6518 H         1 UNK         0.0819 
     94 H94        23.6057   -1.3207   -5.7484 H         1 UNK         0.3041 
     95 H95        25.2999    0.9073   -3.5530 H         1 UNK         0.0784 
     96 H96        23.2182    2.1577   -4.1468 H         1 UNK         0.0793 
     97 H97        22.2991    0.6586   -4.1276 H         1 UNK         0.0793 
     98 H98        23.0299    1.2718   -2.6434 H         1 UNK         0.0793 
     99 H99        23.5517   -1.1677   -2.8994 H         1 UNK         0.3024 
    100 H100       24.0370   -3.2705   -2.5207 H         1 UNK         0.1171 
    101 H101       25.2439   -5.3226   -3.1040 H         1 UNK         0.0786 
    102 H102       25.1170   -4.3251   -4.5420 H         1 UNK         0.0786 
    103 H103       26.6402   -4.4096   -3.6670 H         1 UNK         0.0786 
    104 H104       26.4487   -4.0121   -1.2554 H         1 UNK         0.2977 
    105 H105       27.6812   -0.7054   -5.0826 H         1 UNK         0.3127 
    106 H106       30.1446    0.5816   -4.9708 H         1 UNK         0.0770 
    107 H107       27.4687    1.6923   -3.9742 H         1 UNK         0.0814 
    108 H108       29.0681    2.0864   -3.3629 H         1 UNK         0.0814 
    109 H109       28.4135    0.4739   -3.1303 H         1 UNK         0.0814 
    110 H110       27.1170    1.8112   -6.4932 H         1 UNK         0.2983 
    111 H111       28.5589    4.2623   -7.3764 H         1 UNK         0.0947 
    112 H112       26.2865    5.1991   -7.6053 H         1 UNK         0.0806 
    113 H113       26.5335    4.5570   -5.9897 H         1 UNK         0.0806 
    114 H114       25.5666    3.6601   -7.1562 H         1 UNK         0.0806 
    115 H115       26.2135    1.8600   -8.7483 H         1 UNK         0.3000 
    116 H116       26.3303    3.1302  -11.3209 H         1 UNK         0.0850 
    117 H117       24.7666    1.3965  -12.0480 H         1 UNK         0.0810 
    118 H118       24.2694    2.0221  -10.4857 H         1 UNK         0.0810 
    119 H119       25.0484    0.4463  -10.6051 H         1 UNK         0.0810 
    120 H120       27.5086   -0.1015  -10.2196 H         1 UNK         0.3040 
    121 H121       29.0468   -0.5555  -12.6456 H         1 UNK         0.0766 
    122 H122       29.3346   -1.9261   -9.9278 H         1 UNK         0.0812 
    123 H123       29.8780   -2.5320  -11.4802 H         1 UNK         0.0812 
    124 H124       28.1549   -2.4034  -11.1511 H         1 UNK         0.0812 
    125 H125       29.6786    0.8022   -9.4899 H         1 UNK         0.3205 
    126 H126       31.1115    2.2184   -8.6607 H         1 UNK         0.0754 
    127 H127       32.9050    3.3354   -9.9015 H         1 UNK         0.0769 
    128 H128       31.4445    3.3125  -10.8786 H         1 UNK         0.0769 
    129 H129       32.7690    2.1997  -11.2308 H         1 UNK         0.0769 
    130 H130       32.8037    2.0493   -7.2665 H         1 UNK         0.2981 
    131 H131       33.9880   -0.4811   -6.7790 H         1 UNK         0.0541 
    132 H132       36.1691   -1.2487   -7.0120 H         1 UNK         0.3459 
    133 H133       37.3002   -0.4549   -8.0754 H         1 UNK         0.3459 
    134 H134       34.6886    2.2716   -5.6294 H         1 UNK         0.0612 
    135 H135       35.3030    0.7662   -5.0016 H         1 UNK         0.0612 
    136 H136       33.7611   -0.1477   -2.5630 H         1 UNK         0.0624 
    137 H137       34.1177   -1.0247   -4.0311 H         1 UNK         0.0624 
@<TRIPOS>BOND
     1    1    2 1    
     2    1   72 1    
     3    1   73 1    
     4    1   74 1    
     5    2    3 2    
     6    2    4 am   BACKBONE|DICT|INTERRES
     7    4    5 1    
     8    4   75 1    
     9    5    6 1    
    10    5   35 1    
    11    5   76 1    
    12    6    7 1    
    13    6   77 1    
    14    6   78 1    
    15    7    8 1    
    16    8    9 1    
    17    8   79 1    
    18    8   80 1    
    19    9   10 ar   
    20    9   14 ar   
    21   10   11 ar   
    22   10   81 1    
    23   11   12 ar   
    24   11   71 1    
    25   12   13 ar   
    26   12   82 1    
    27   13   14 ar   
    28   13   15 1    
    29   14   83 1    
    30   15   16 1    
    31   15   84 1    
    32   15   85 1    
    33   16   17 1    
    34   17   18 1    
    35   17   86 1    
    36   17   87 1    
    37   18   19 1    
    38   18   37 1    
    39   18   88 1    
    40   19   20 am   BACKBONE|DICT|INTERRES
    41   19   89 1    
    42   20   21 2    
    43   20   22 1    
    44   22   23 1    
    45   22   24 1    
    46   22   90 1    
    47   23   91 1    
    48   23   92 1    
    49   23   93 1    
    50   24   25 am   BACKBONE|DICT|INTERRES
    51   24   94 1    
    52   25   26 2    
    53   25   27 1    
    54   27   28 1    
    55   27   29 1    
    56   27   95 1    
    57   28   96 1    
    58   28   97 1    
    59   28   98 1    
    60   29   30 am   BACKBONE|DICT|INTERRES
    61   29   99 1    
    62   30   31 2    
    63   30   32 1    
    64   32   33 1    
    65   32   34 1    
    66   32  100 1    
    67   33  101 1    
    68   33  102 1    
    69   33  103 1    
    70   34   35 am   BACKBONE|DICT|INTERRES
    71   34  104 1    
    72   35   36 2    
    73   37   38 2    
    74   37   39 am   BACKBONE|DICT|INTERRES
    75   39   40 1    
    76   39  105 1    
    77   40   41 1    
    78   40   42 1    
    79   40  106 1    
    80   41  107 1    
    81   41  108 1    
    82   41  109 1    
    83   42   43 2    
    84   42   44 am   BACKBONE|DICT|INTERRES
    85   44   45 1    
    86   44  110 1    
    87   45   46 1    
    88   45   47 1    
    89   45  111 1    
    90   46  112 1    
    91   46  113 1    
    92   46  114 1    
    93   47   48 2    
    94   47   49 am   BACKBONE|DICT|INTERRES
    95   49   50 1    
    96   49  115 1    
    97   50   51 1    
    98   50   52 1    
    99   50  116 1    
   100   51  117 1    
   101   51  118 1    
   102   51  119 1    
   103   52   53 2    
   104   52   54 am   BACKBONE|DICT|INTERRES
   105   54   55 1    
   106   54  120 1    
   107   55   56 1    
   108   55   57 1    
   109   55  121 1    
   110   56  122 1    
   111   56  123 1    
   112   56  124 1    
   113   57   58 2    
   114   57   59 am   BACKBONE|DICT|INTERRES
   115   59   60 1    
   116   59  125 1    
   117   60   61 1    
   118   60   62 1    
   119   60  126 1    
   120   61  127 1    
   121   61  128 1    
   122   61  129 1    
   123   62   63 2    
   124   62   64 am   BACKBONE|DICT|INTERRES
   125   64   65 1    
   126   64  130 1    
   127   65   66 1    
   128   65   69 1    
   129   65  131 1    
   130   66   67 am   BACKBONE|DICT|INTERRES
   131   66   68 2    
   132   67  132 1    
   133   67  133 1    
   134   69   70 1    
   135   69  134 1    
   136   69  135 1    
   137   70   71 1    
   138   71  136 1    
   139   71  137 1    
@<TRIPOS>SUBSTRUCTURE
     1 UNK         1 GROUP             0       ****    0 ROOT    
