@<TRIPOS>MOLECULE
3R137
137   139    1
SMALL
USER_CHARGES


@<TRIPOS>ATOM
      1 CA         30.4833   -2.0745    1.2791 C.3       0 UNK        -0.2020 
      2 C          29.2716   -1.9094    2.1924 C.2       0 UNK         0.4855 
      3 O          29.4413   -1.8359    3.4080 O.2       0 UNK        -0.5197 
      4 N          28.0399   -1.8447    1.6744 N.am      1 UNK        -0.4892 
      5 CA         27.6363   -1.8831    0.2690 C.3       1 UNK         0.0835 
      6 C6         27.7288   -3.3087   -0.3462 C.3       12 UNK        -0.0855 
      7 S7         28.1278   -3.2630   -2.1270 S.3       12 UNK        -0.2931 
      8 C8         29.8317   -3.9027   -2.1109 C.3       12 UNK         0.0378 
      9 C9         30.4588   -3.8857   -3.4966 C.ar      12 UNK        -0.0802 
     10 C10        31.4730   -2.9734   -3.8037 C.ar      12 UNK        -0.0944 
     11 C11        32.0838   -2.9838   -5.0618 C.ar      12 UNK        -0.0787 
     12 C12        31.6622   -3.9127   -6.0206 C.ar      12 UNK        -0.0862 
     13 C13        30.6383   -4.8203   -5.7304 C.ar      12 UNK        -0.0733 
     14 C14        30.0485   -4.8078   -4.4626 C.ar      12 UNK        -0.0832 
     15 C15        30.1889   -5.8357   -6.7733 C.3       12 UNK         0.0240 
     16 S16        29.1804   -5.0919   -8.0972 S.3       12 UNK        -0.2522 
     17 C17        27.6966   -4.5240   -7.1929 C.3       12 UNK        -0.0967 
     18 CA         27.2002   -3.1263   -7.6414 C.3       5 UNK         0.0660 
     19 N          25.8694   -2.8335   -7.0922 N.am      5 UNK        -0.4015 
     20 C          25.1536   -1.7194   -7.3052 C.2       4 UNK         0.4946 
     21 O          25.5591   -0.7610   -7.9634 O.2       4 UNK        -0.5353 
     22 CA         23.7662   -1.6239   -6.6585 C.3       4 UNK         0.0277 
     23 CB         23.2944   -2.9069   -5.9420 C.3       4 UNK        -0.1981 
     24 N          23.8163   -0.5274   -5.7019 N.am      4 UNK        -0.4209 
     25 C          22.9177    0.4462   -5.5436 C.2       3 UNK         0.4942 
     26 O          21.8746    0.5327   -6.1944 O.2       3 UNK        -0.5208 
     27 CA         23.2458    1.4822   -4.4454 C.3       3 UNK         0.0250 
     28 CB         22.1787    2.5872   -4.3331 C.3       3 UNK        -0.1990 
     29 N          23.4324    0.8616   -3.1276 N.am      3 UNK        -0.4232 
     30 C          24.4910    0.1303   -2.7537 C.2       2 UNK         0.4993 
     31 O          25.4645   -0.0868   -3.4837 O.2       2 UNK        -0.5286 
     32 CA         24.4289   -0.5081   -1.3624 C.3       2 UNK         0.0209 
     33 CB         23.3817   -1.6392   -1.3215 C.3       2 UNK        -0.1931 
     34 N          25.7479   -1.0459   -1.0425 N.am      2 UNK        -0.4546 
     35 C          26.2101   -1.3070    0.1820 C.2       1 UNK         0.5154 
     36 O          25.5560   -1.1215    1.2140 O.2       1 UNK        -0.5181 
     37 C          28.2344   -2.0112   -7.3677 C.2       5 UNK         0.5014 
     38 O          28.9181   -1.5909   -8.3015 O.2       5 UNK        -0.5248 
     39 N          28.2806   -1.5057   -6.1249 N.am      6 UNK        -0.4434 
     40 CA         29.1760   -0.4200   -5.7110 C.3       6 UNK         0.0363 
     41 CB         29.0537   -0.1923   -4.1974 C.3       6 UNK        -0.1936 
     42 C          28.9494    0.9009   -6.4663 C.2       6 UNK         0.5081 
     43 O          29.9140    1.6266   -6.7149 O.2       6 UNK        -0.5248 
     44 N          27.6909    1.1867   -6.8238 N.am      7 UNK        -0.4718 
     45 CA         27.3119    2.3497   -7.6233 C.3       7 UNK         0.0273 
     46 CB         25.8464    2.7197   -7.3421 C.3       7 UNK        -0.1935 
     47 C          27.5417    2.0962   -9.1195 C.2       7 UNK         0.5018 
     48 O          28.1038    2.9581   -9.7942 O.2       7 UNK        -0.5186 
     49 N          27.1260    0.9170   -9.6042 N.am      8 UNK        -0.4240 
     50 CA         27.2280    0.4941  -11.0036 C.3       8 UNK         0.0235 
     51 CB         26.4847   -0.8376  -11.1951 C.3       8 UNK        -0.2000 
     52 C          28.6758    0.3844  -11.5072 C.2       8 UNK         0.4941 
     53 O          28.9672    0.8550  -12.6074 O.2       8 UNK        -0.5273 
     54 N          29.5579   -0.2097  -10.6923 N.am      9 UNK        -0.4262 
     55 CA         30.9914   -0.3236  -10.9738 C.3       9 UNK         0.0264 
     56 CB         31.5375   -1.5885  -10.2917 C.3       9 UNK        -0.1955 
     57 C          31.7917    0.9262  -10.5573 C.2       9 UNK         0.5031 
     58 O          32.9773    0.9998  -10.8842 O.2       9 UNK        -0.5390 
     59 N          31.1426    1.8777   -9.8652 N.am      10 UNK        -0.4204 
     60 CA         31.6796    3.1448   -9.3525 C.3       10 UNK         0.0237 
     61 CB         31.9979    4.1094  -10.5146 C.3       10 UNK        -0.1985 
     62 C          32.8687    2.9309   -8.3970 C.2       10 UNK         0.4970 
     63 O          33.9526    3.4759   -8.6179 O.2       10 UNK        -0.4914 
     64 N          32.6350    2.1188   -7.3631 N.am      11 UNK        -0.4285 
     65 CA         33.6290    1.6841   -6.3712 C.3       11 UNK         0.1007 
     66 C          33.1483    1.8131   -4.8985 C.2       11 UNK         0.5703 
     67 N          31.9058    2.1963   -4.6301 N.am      11 UNK        -0.7361 
     68 O          33.9308    1.5923   -3.9773 O.2       11 UNK        -0.4986 
     69 C69        34.1884    0.2744   -6.7064 C.3       12 UNK        -0.0947 
     70 S70        32.8919   -1.0036   -6.8377 S.3       12 UNK        -0.2240 
     71 C71        33.2202   -2.0133   -5.3623 C.3       12 UNK         0.0194 
     72 H72        30.6222   -3.1235    1.0217 H         1 UNK         0.0906 
     73 H73        30.3979   -1.4930    0.3631 H         1 UNK         0.0906 
     74 H74        31.3856   -1.7380    1.7894 H         1 UNK         0.0906 
     75 H75        27.2481   -1.6871    2.2888 H         1 UNK         0.3140 
     76 H76        28.2770   -1.1919   -0.2814 H         1 UNK         0.1085 
     77 H77        28.4876   -3.9037    0.1625 H         1 UNK         0.0836 
     78 H78        26.8012   -3.8681   -0.2062 H         1 UNK         0.0836 
     79 H79        30.4315   -3.3098   -1.4203 H         1 UNK         0.0731 
     80 H80        29.8326   -4.9233   -1.7250 H         1 UNK         0.0731 
     81 H81        31.7975   -2.2626   -3.0560 H         1 UNK         0.1312 
     82 H82        32.1287   -3.9264   -6.9963 H         1 UNK         0.1406 
     83 H83        29.2671   -5.5161   -4.2220 H         1 UNK         0.1631 
     84 H84        29.6245   -6.6456   -6.3084 H         1 UNK         0.0717 
     85 H85        31.0681   -6.2994   -7.2228 H         1 UNK         0.0717 
     86 H86        26.9170   -5.2669   -7.3692 H         1 UNK         0.0934 
     87 H87        27.8745   -4.5342   -6.1178 H         1 UNK         0.0934 
     88 H88        27.0670   -3.1637   -8.7243 H         1 UNK         0.0739 
     89 H89        25.4522   -3.5583   -6.5273 H         1 UNK         0.3093 
     90 H90        23.0625   -1.3911   -7.4604 H         1 UNK         0.0818 
     91 H91        22.2869   -2.7772   -5.5459 H         1 UNK         0.0819 
     92 H92        23.2559   -3.7551   -6.6269 H         1 UNK         0.0819 
     93 H93        23.9390   -3.1732   -5.1030 H         1 UNK         0.0819 
     94 H94        24.6324   -0.4947   -5.0939 H         1 UNK         0.3041 
     95 H95        24.1848    1.9602   -4.7307 H         1 UNK         0.0784 
     96 H96        22.0472    3.1016   -5.2861 H         1 UNK         0.0793 
     97 H97        21.2077    2.1838   -4.0430 H         1 UNK         0.0793 
     98 H98        22.4631    3.3408   -3.5985 H         1 UNK         0.0793 
     99 H99        22.6613    0.9567   -2.4821 H         1 UNK         0.3024 
    100 H100       24.1699    0.2688   -0.6392 H         1 UNK         0.1171 
    101 H101       23.3296   -2.0989   -0.3345 H         1 UNK         0.0786 
    102 H102       22.3829   -1.2666   -1.5519 H         1 UNK         0.0786 
    103 H103       23.6120   -2.4246   -2.0428 H         1 UNK         0.0786 
    104 H104       26.3414   -1.1902   -1.8521 H         1 UNK         0.2977 
    105 H105       27.6793   -1.8957   -5.4142 H         1 UNK         0.3127 
    106 H106       30.1947   -0.7446   -5.9220 H         1 UNK         0.0770 
    107 H107       28.0424    0.0939   -3.9107 H         1 UNK         0.0814 
    108 H108       29.7220    0.6017   -3.8647 H         1 UNK         0.0814 
    109 H109       29.3233   -1.0867   -3.6401 H         1 UNK         0.0814 
    110 H110       26.9693    0.5026   -6.6411 H         1 UNK         0.2983 
    111 H111       27.9335    3.1995   -7.3312 H         1 UNK         0.0947 
    112 H112       25.5384    3.5750   -7.9451 H         1 UNK         0.0806 
    113 H113       25.7063    2.9959   -6.2975 H         1 UNK         0.0806 
    114 H114       25.1650    1.8990   -7.5689 H         1 UNK         0.0806 
    115 H115       26.6503    0.2755   -8.9704 H         1 UNK         0.3000 
    116 H116       26.7266    1.2523  -11.6088 H         1 UNK         0.0850 
    117 H117       26.5143   -1.1559  -12.2380 H         1 UNK         0.0810 
    118 H118       25.4357   -0.7507  -10.9112 H         1 UNK         0.0810 
    119 H119       26.9273   -1.6342  -10.5969 H         1 UNK         0.0810 
    120 H120       29.2363   -0.6118   -9.8108 H         1 UNK         0.3040 
    121 H121       31.1333   -0.4444  -12.0499 H         1 UNK         0.0766 
    122 H122       31.3907   -1.5562   -9.2134 H         1 UNK         0.0812 
    123 H123       32.6065   -1.7072  -10.4729 H         1 UNK         0.0812 
    124 H124       31.0420   -2.4848  -10.6648 H         1 UNK         0.0812 
    125 H125       30.1647    1.7157   -9.6659 H         1 UNK         0.3205 
    126 H126       30.8834    3.5969   -8.7586 H         1 UNK         0.0754 
    127 H127       32.3121    5.0836  -10.1381 H         1 UNK         0.0769 
    128 H128       31.1218    4.2719  -11.1427 H         1 UNK         0.0769 
    129 H129       32.8000    3.7312  -11.1493 H         1 UNK         0.0769 
    130 H130       31.6962    1.7488   -7.2344 H         1 UNK         0.2981 
    131 H131       34.4744    2.3723   -6.4187 H         1 UNK         0.0541 
    132 H132       31.2296    2.3229   -5.3727 H         1 UNK         0.3459 
    133 H133       31.6253    2.3006   -3.6688 H         1 UNK         0.3459 
    134 H134       34.9444   -0.0299   -5.9805 H         1 UNK         0.0612 
    135 H135       34.7047    0.3127   -7.6667 H         1 UNK         0.0612 
    136 H136       33.3885   -1.3493   -4.5129 H         1 UNK         0.0624 
    137 H137       34.1438   -2.5742   -5.5101 H         1 UNK         0.0624 
@<TRIPOS>BOND
     1    1    2 1    
     2    1   72 1    
     3    1   73 1    
     4    1   74 1    
     5    2    3 2    
     6    2    4 am   BACKBONE|DICT|INTERRES
     7    4    5 1    
     8    4   75 1    
     9    5    6 1    
    10    5   35 1    
    11    5   76 1    
    12    6    7 1    
    13    6   77 1    
    14    6   78 1    
    15    7    8 1    
    16    8    9 1    
    17    8   79 1    
    18    8   80 1    
    19    9   10 ar   
    20    9   14 ar   
    21   10   11 ar   
    22   10   81 1    
    23   11   12 ar   
    24   11   71 1    
    25   12   13 ar   
    26   12   82 1    
    27   13   14 ar   
    28   13   15 1    
    29   14   83 1    
    30   15   16 1    
    31   15   84 1    
    32   15   85 1    
    33   16   17 1    
    34   17   18 1    
    35   17   86 1    
    36   17   87 1    
    37   18   19 1    
    38   18   37 1    
    39   18   88 1    
    40   19   20 am   BACKBONE|DICT|INTERRES
    41   19   89 1    
    42   20   21 2    
    43   20   22 1    
    44   22   23 1    
    45   22   24 1    
    46   22   90 1    
    47   23   91 1    
    48   23   92 1    
    49   23   93 1    
    50   24   25 am   BACKBONE|DICT|INTERRES
    51   24   94 1    
    52   25   26 2    
    53   25   27 1    
    54   27   28 1    
    55   27   29 1    
    56   27   95 1    
    57   28   96 1    
    58   28   97 1    
    59   28   98 1    
    60   29   30 am   BACKBONE|DICT|INTERRES
    61   29   99 1    
    62   30   31 2    
    63   30   32 1    
    64   32   33 1    
    65   32   34 1    
    66   32  100 1    
    67   33  101 1    
    68   33  102 1    
    69   33  103 1    
    70   34   35 am   BACKBONE|DICT|INTERRES
    71   34  104 1    
    72   35   36 2    
    73   37   38 2    
    74   37   39 am   BACKBONE|DICT|INTERRES
    75   39   40 1    
    76   39  105 1    
    77   40   41 1    
    78   40   42 1    
    79   40  106 1    
    80   41  107 1    
    81   41  108 1    
    82   41  109 1    
    83   42   43 2    
    84   42   44 am   BACKBONE|DICT|INTERRES
    85   44   45 1    
    86   44  110 1    
    87   45   46 1    
    88   45   47 1    
    89   45  111 1    
    90   46  112 1    
    91   46  113 1    
    92   46  114 1    
    93   47   48 2    
    94   47   49 am   BACKBONE|DICT|INTERRES
    95   49   50 1    
    96   49  115 1    
    97   50   51 1    
    98   50   52 1    
    99   50  116 1    
   100   51  117 1    
   101   51  118 1    
   102   51  119 1    
   103   52   53 2    
   104   52   54 am   BACKBONE|DICT|INTERRES
   105   54   55 1    
   106   54  120 1    
   107   55   56 1    
   108   55   57 1    
   109   55  121 1    
   110   56  122 1    
   111   56  123 1    
   112   56  124 1    
   113   57   58 2    
   114   57   59 am   BACKBONE|DICT|INTERRES
   115   59   60 1    
   116   59  125 1    
   117   60   61 1    
   118   60   62 1    
   119   60  126 1    
   120   61  127 1    
   121   61  128 1    
   122   61  129 1    
   123   62   63 2    
   124   62   64 am   BACKBONE|DICT|INTERRES
   125   64   65 1    
   126   64  130 1    
   127   65   66 1    
   128   65   69 1    
   129   65  131 1    
   130   66   67 am   BACKBONE|DICT|INTERRES
   131   66   68 2    
   132   67  132 1    
   133   67  133 1    
   134   69   70 1    
   135   69  134 1    
   136   69  135 1    
   137   70   71 1    
   138   71  136 1    
   139   71  137 1    
@<TRIPOS>SUBSTRUCTURE
     1 UNK         1 GROUP             0       ****    0 ROOT    
