@<TRIPOS>MOLECULE
3R137
137   139    1
SMALL
USER_CHARGES


@<TRIPOS>ATOM
      1 CA         29.0653    0.6931    1.9099 C.3       0 UNK        -0.2020 
      2 C          28.7394   -0.0873    0.6460 C.2       0 UNK         0.4855 
      3 O          28.5353    0.5112   -0.4104 O.2       0 UNK        -0.5197 
      4 N          28.6649   -1.4206    0.7443 N.am      1 UNK        -0.4892 
      5 CA         28.4265   -2.3593   -0.3632 C.3       1 UNK         0.0835 
      6 C6         29.0113   -3.7665   -0.0410 C.3       12 UNK        -0.0855 
      7 S7         30.8147   -3.7384    0.2901 S.3       12 UNK        -0.2931 
      8 C8         31.5399   -4.2019   -1.3226 C.3       12 UNK         0.0378 
      9 C9         31.0927   -3.2405   -2.4106 C.ar      12 UNK        -0.0802 
     10 C10        31.6953   -1.9851   -2.5417 C.ar      12 UNK        -0.0944 
     11 C11        31.1681   -1.0381   -3.4255 C.ar      12 UNK        -0.0787 
     12 C12        30.0354   -1.3588   -4.1779 C.ar      12 UNK        -0.0862 
     13 C13        29.4372   -2.6158   -4.0625 C.ar      12 UNK        -0.0733 
     14 C14        29.9949   -3.5672   -3.2095 C.ar      12 UNK        -0.0832 
     15 C15        28.1122   -2.9105   -4.7378 C.3       12 UNK         0.0240 
     16 S16        28.2633   -3.9287   -6.2346 S.3       12 UNK        -0.2522 
     17 C17        28.9559   -2.7651   -7.4638 C.3       12 UNK        -0.0967 
     18 CA         27.9975   -1.6575   -8.0007 C.3       5 UNK         0.0660 
     19 N          26.5763   -2.0097   -7.9082 N.am      5 UNK        -0.4015 
     20 C          25.5559   -1.2724   -8.3670 C.2       4 UNK         0.4946 
     21 O          25.7040   -0.2462   -9.0314 O.2       4 UNK        -0.5353 
     22 CA         24.1318   -1.7014   -7.9658 C.3       4 UNK         0.0277 
     23 CB         23.4946   -2.5315   -9.0912 C.3       4 UNK        -0.1981 
     24 N          24.0084   -2.4306   -6.6922 N.am      4 UNK        -0.4209 
     25 C          24.4946   -2.0484   -5.5005 C.2       3 UNK         0.4942 
     26 O          25.2221   -1.0638   -5.3499 O.2       3 UNK        -0.5208 
     27 CA         24.1176   -2.9343   -4.2938 C.3       3 UNK         0.0250 
     28 CB         24.5593   -4.3971   -4.4880 C.3       3 UNK        -0.1990 
     29 N          24.6552   -2.4303   -3.0231 N.am      3 UNK        -0.4232 
     30 C          24.1925   -1.3536   -2.3757 C.2       2 UNK         0.4993 
     31 O          23.2365   -0.6855   -2.7743 O.2       2 UNK        -0.5286 
     32 CA         24.8664   -0.9397   -1.0527 C.3       2 UNK         0.0209 
     33 CB         24.0704   -1.4807    0.1517 C.3       2 UNK        -0.1931 
     34 N          26.3008   -1.2353   -0.9007 N.am      2 UNK        -0.4546 
     35 C          26.9340   -2.4112   -0.7863 C.2       1 UNK         0.5154 
     36 O          26.3824   -3.4951   -0.9833 O.2       1 UNK        -0.5181 
     37 C          28.3386   -0.2785   -7.3947 C.2       5 UNK         0.5014 
     38 O          29.2722    0.3580   -7.8812 O.2       5 UNK        -0.5248 
     39 N          27.5954    0.1744   -6.3734 N.am      6 UNK        -0.4434 
     40 CA         27.7988    1.4739   -5.7309 C.3       6 UNK         0.0363 
     41 CB         27.1773    1.4564   -4.3245 C.3       6 UNK        -0.1936 
     42 C          27.2249    2.6244   -6.5716 C.2       6 UNK         0.5081 
     43 O          27.7945    3.7150   -6.5690 O.2       6 UNK        -0.5248 
     44 N          26.1287    2.3579   -7.2958 N.am      7 UNK        -0.4718 
     45 CA         25.5172    3.2922   -8.2428 C.3       7 UNK         0.0273 
     46 CB         24.0625    2.8749   -8.5143 C.3       7 UNK        -0.1935 
     47 C          26.3188    3.3732   -9.5511 C.2       7 UNK         0.5018 
     48 O          26.5057    4.4681  -10.0823 O.2       7 UNK        -0.5186 
     49 N          26.7952    2.2159  -10.0315 N.am      8 UNK        -0.4240 
     50 CA         27.6345    2.0868  -11.2252 C.3       8 UNK         0.0235 
     51 CB         27.6323    0.6163  -11.6752 C.3       8 UNK        -0.2000 
     52 C          29.0821    2.5748  -11.0276 C.2       8 UNK         0.4941 
     53 O          29.7600    2.8234  -12.0252 O.2       8 UNK        -0.5273 
     54 N          29.5324    2.6713   -9.7658 N.am      9 UNK        -0.4262 
     55 CA         30.9095    2.9332   -9.3248 C.3       9 UNK         0.0264 
     56 CB         31.3677    4.3531   -9.7200 C.3       9 UNK        -0.1955 
     57 C          31.8703    1.8230   -9.7957 C.2       9 UNK         0.5031 
     58 O          32.9351    2.1053  -10.3490 O.2       9 UNK        -0.5390 
     59 N          31.4490    0.5733   -9.5750 N.am      10 UNK        -0.4204 
     60 CA         32.1146   -0.6569   -9.9969 C.3       10 UNK         0.0237 
     61 CB         31.2231   -1.3714  -11.0311 C.3       10 UNK        -0.1985 
     62 C          32.4124   -1.5249   -8.7649 C.2       10 UNK         0.4970 
     63 O          32.0699   -2.7076   -8.7406 O.2       10 UNK        -0.4914 
     64 N          33.0257   -0.9054   -7.7504 N.am      11 UNK        -0.4285 
     65 CA         33.3591   -1.5142   -6.4518 C.3       11 UNK         0.1007 
     66 C          34.4709   -2.6037   -6.4970 C.2       11 UNK         0.5703 
     67 N          35.2359   -2.7332   -7.5750 N.am      11 UNK        -0.7361 
     68 O          34.6410   -3.3475   -5.5343 O.2       11 UNK        -0.4986 
     69 C69        33.7028   -0.4272   -5.4002 C.3       12 UNK        -0.0947 
     70 S70        32.3531    0.7807   -5.1762 S.3       12 UNK        -0.2240 
     71 C71        31.7652    0.3606   -3.5054 C.3       12 UNK         0.0194 
     72 H72        29.9735    1.2774    1.7645 H         1 UNK         0.0906 
     73 H73        28.2527    1.3792    2.1472 H         1 UNK         0.0906 
     74 H74        29.2178    0.0372    2.7668 H         1 UNK         0.0906 
     75 H75        28.8263   -1.8550    1.6420 H         1 UNK         0.3140 
     76 H76        28.9559   -1.9671   -1.2319 H         1 UNK         0.1085 
     77 H77        28.5151   -4.1825    0.8377 H         1 UNK         0.0836 
     78 H78        28.8118   -4.4741   -0.8464 H         1 UNK         0.0836 
     79 H79        32.6280   -4.1921   -1.2440 H         1 UNK         0.0731 
     80 H80        31.2575   -5.2267   -1.5689 H         1 UNK         0.0731 
     81 H81        32.5375   -1.7286   -1.9136 H         1 UNK         0.1312 
     82 H82        29.6054   -0.6081   -4.8213 H         1 UNK         0.1406 
     83 H83        29.5151   -4.5307   -3.1014 H         1 UNK         0.1631 
     84 H84        27.5835   -1.9890   -4.9568 H         1 UNK         0.0717 
     85 H85        27.4811   -3.4384   -4.0233 H         1 UNK         0.0717 
     86 H86        29.8858   -2.3526   -7.0655 H         1 UNK         0.0934 
     87 H87        29.2753   -3.3784   -8.3080 H         1 UNK         0.0934 
     88 H88        28.2018   -1.5537   -9.0678 H         1 UNK         0.0739 
     89 H89        26.3695   -2.8381   -7.3689 H         1 UNK         0.3093 
     90 H90        23.5527   -0.7823   -7.8555 H         1 UNK         0.0818 
     91 H91        22.4401   -2.7262   -8.8950 H         1 UNK         0.0819 
     92 H92        23.5504   -2.0050  -10.0454 H         1 UNK         0.0819 
     93 H93        23.9969   -3.4913   -9.2190 H         1 UNK         0.0819 
     94 H94        23.4327   -3.2600   -6.7199 H         1 UNK         0.3041 
     95 H95        23.0281   -2.9226   -4.2174 H         1 UNK         0.0784 
     96 H96        24.0292   -4.8655   -5.3178 H         1 UNK         0.0793 
     97 H97        25.6230   -4.4854   -4.6988 H         1 UNK         0.0793 
     98 H98        24.3458   -4.9956   -3.6019 H         1 UNK         0.0793 
     99 H99        25.4063   -2.9515   -2.5832 H         1 UNK         0.3024 
    100 H100       24.7985    0.1493   -1.0207 H         1 UNK         0.1171 
    101 H101       23.0247   -1.1745    0.0983 H         1 UNK         0.0786 
    102 H102       24.4694   -1.1030    1.0931 H         1 UNK         0.0786 
    103 H103       24.0861   -2.5703    0.1929 H         1 UNK         0.0786 
    104 H104       26.8946   -0.4177   -0.7792 H         1 UNK         0.2977 
    105 H105       26.8017   -0.3730   -6.0427 H         1 UNK         0.3127 
    106 H106       28.8724    1.6464   -5.6225 H         1 UNK         0.0770 
    107 H107       26.0973    1.3083   -4.3601 H         1 UNK         0.0814 
    108 H108       27.3598    2.3993   -3.8074 H         1 UNK         0.0814 
    109 H109       27.6028    0.6633   -3.7091 H         1 UNK         0.0814 
    110 H110       25.7485    1.4219   -7.2685 H         1 UNK         0.2983 
    111 H111       25.5074    4.2884   -7.7942 H         1 UNK         0.0947 
    112 H112       23.5790    3.5746   -9.1973 H         1 UNK         0.0806 
    113 H113       23.4759    2.8625   -7.5955 H         1 UNK         0.0806 
    114 H114       23.9992    1.8841   -8.9657 H         1 UNK         0.0806 
    115 H115       26.5209    1.3508   -9.5693 H         1 UNK         0.3000 
    116 H116       27.1911    2.6902  -12.0203 H         1 UNK         0.0850 
    117 H117       28.2017    0.4874  -12.5967 H         1 UNK         0.0810 
    118 H118       26.6198    0.2598  -11.8662 H         1 UNK         0.0810 
    119 H119       28.0795   -0.0334  -10.9228 H         1 UNK         0.0810 
    120 H120       28.8954    2.3950   -9.0306 H         1 UNK         0.3040 
    121 H121       30.8949    2.8834   -8.2346 H         1 UNK         0.0766 
    122 H122       32.3419    4.5811   -9.2860 H         1 UNK         0.0812 
    123 H123       30.6680    5.1083   -9.3623 H         1 UNK         0.0812 
    124 H124       31.4611    4.4663  -10.8004 H         1 UNK         0.0812 
    125 H125       30.5989    0.4552   -9.0199 H         1 UNK         0.3205 
    126 H126       33.0734   -0.4322  -10.4684 H         1 UNK         0.0754 
    127 H127       31.7026   -2.2777  -11.4032 H         1 UNK         0.0769 
    128 H128       31.0273   -0.7315  -11.8919 H         1 UNK         0.0769 
    129 H129       30.2617   -1.6595  -10.6045 H         1 UNK         0.0769 
    130 H130       33.2593    0.0711   -7.8498 H         1 UNK         0.2981 
    131 H131       32.4602   -2.0289   -6.1062 H         1 UNK         0.0541 
    132 H132       35.1062   -2.1297   -8.3704 H         1 UNK         0.3459 
    133 H133       35.9493   -3.4447   -7.5908 H         1 UNK         0.3459 
    134 H134       34.5988    0.1195   -5.6988 H         1 UNK         0.0612 
    135 H135       33.9358   -0.8830   -4.4360 H         1 UNK         0.0612 
    136 H136       32.5889    0.4767   -2.7993 H         1 UNK         0.0624 
    137 H137       31.0039    1.0842   -3.2106 H         1 UNK         0.0624 
@<TRIPOS>BOND
     1    1    2 1    
     2    1   72 1    
     3    1   73 1    
     4    1   74 1    
     5    2    3 2    
     6    2    4 am   BACKBONE|DICT|INTERRES
     7    4    5 1    
     8    4   75 1    
     9    5    6 1    
    10    5   35 1    
    11    5   76 1    
    12    6    7 1    
    13    6   77 1    
    14    6   78 1    
    15    7    8 1    
    16    8    9 1    
    17    8   79 1    
    18    8   80 1    
    19    9   10 ar   
    20    9   14 ar   
    21   10   11 ar   
    22   10   81 1    
    23   11   12 ar   
    24   11   71 1    
    25   12   13 ar   
    26   12   82 1    
    27   13   14 ar   
    28   13   15 1    
    29   14   83 1    
    30   15   16 1    
    31   15   84 1    
    32   15   85 1    
    33   16   17 1    
    34   17   18 1    
    35   17   86 1    
    36   17   87 1    
    37   18   19 1    
    38   18   37 1    
    39   18   88 1    
    40   19   20 am   BACKBONE|DICT|INTERRES
    41   19   89 1    
    42   20   21 2    
    43   20   22 1    
    44   22   23 1    
    45   22   24 1    
    46   22   90 1    
    47   23   91 1    
    48   23   92 1    
    49   23   93 1    
    50   24   25 am   BACKBONE|DICT|INTERRES
    51   24   94 1    
    52   25   26 2    
    53   25   27 1    
    54   27   28 1    
    55   27   29 1    
    56   27   95 1    
    57   28   96 1    
    58   28   97 1    
    59   28   98 1    
    60   29   30 am   BACKBONE|DICT|INTERRES
    61   29   99 1    
    62   30   31 2    
    63   30   32 1    
    64   32   33 1    
    65   32   34 1    
    66   32  100 1    
    67   33  101 1    
    68   33  102 1    
    69   33  103 1    
    70   34   35 am   BACKBONE|DICT|INTERRES
    71   34  104 1    
    72   35   36 2    
    73   37   38 2    
    74   37   39 am   BACKBONE|DICT|INTERRES
    75   39   40 1    
    76   39  105 1    
    77   40   41 1    
    78   40   42 1    
    79   40  106 1    
    80   41  107 1    
    81   41  108 1    
    82   41  109 1    
    83   42   43 2    
    84   42   44 am   BACKBONE|DICT|INTERRES
    85   44   45 1    
    86   44  110 1    
    87   45   46 1    
    88   45   47 1    
    89   45  111 1    
    90   46  112 1    
    91   46  113 1    
    92   46  114 1    
    93   47   48 2    
    94   47   49 am   BACKBONE|DICT|INTERRES
    95   49   50 1    
    96   49  115 1    
    97   50   51 1    
    98   50   52 1    
    99   50  116 1    
   100   51  117 1    
   101   51  118 1    
   102   51  119 1    
   103   52   53 2    
   104   52   54 am   BACKBONE|DICT|INTERRES
   105   54   55 1    
   106   54  120 1    
   107   55   56 1    
   108   55   57 1    
   109   55  121 1    
   110   56  122 1    
   111   56  123 1    
   112   56  124 1    
   113   57   58 2    
   114   57   59 am   BACKBONE|DICT|INTERRES
   115   59   60 1    
   116   59  125 1    
   117   60   61 1    
   118   60   62 1    
   119   60  126 1    
   120   61  127 1    
   121   61  128 1    
   122   61  129 1    
   123   62   63 2    
   124   62   64 am   BACKBONE|DICT|INTERRES
   125   64   65 1    
   126   64  130 1    
   127   65   66 1    
   128   65   69 1    
   129   65  131 1    
   130   66   67 am   BACKBONE|DICT|INTERRES
   131   66   68 2    
   132   67  132 1    
   133   67  133 1    
   134   69   70 1    
   135   69  134 1    
   136   69  135 1    
   137   70   71 1    
   138   71  136 1    
   139   71  137 1    
@<TRIPOS>SUBSTRUCTURE
     1 UNK         1 GROUP             0       ****    0 ROOT    
