@<TRIPOS>MOLECULE
3R137
137   139    1
SMALL
USER_CHARGES


@<TRIPOS>ATOM
      1 CA         25.6300   -7.5573    0.0587 C.3       0 UNK        -0.2020 
      2 C          26.1566   -6.2105   -0.4146 C.2       0 UNK         0.4855 
      3 O          26.2159   -5.9675   -1.6206 O.2       0 UNK        -0.5197 
      4 N          26.5275   -5.3281    0.5254 N.am      1 UNK        -0.4892 
      5 CA         27.0683   -3.9699    0.3330 C.3       1 UNK         0.0835 
      6 C6         28.3428   -3.9304   -0.5571 C.3       12 UNK        -0.0855 
      7 S7         29.6503   -2.8596    0.1311 S.3       12 UNK        -0.2931 
      8 C8         31.1557   -3.7078   -0.4539 C.3       12 UNK         0.0378 
      9 C9         31.4507   -3.3811   -1.9114 C.ar      12 UNK        -0.0802 
     10 C10        32.4270   -2.4328   -2.2361 C.ar      12 UNK        -0.0944 
     11 C11        32.6882   -2.1154   -3.5722 C.ar      12 UNK        -0.0787 
     12 C12        31.9600   -2.7449   -4.5855 C.ar      12 UNK        -0.0862 
     13 C13        30.9608   -3.6705   -4.2724 C.ar      12 UNK        -0.0733 
     14 C14        30.7352   -4.0098   -2.9362 C.ar      12 UNK        -0.0832 
     15 C15        30.0882   -4.2623   -5.3720 C.3       12 UNK         0.0240 
     16 S16        28.3739   -3.6357   -5.2869 S.3       12 UNK        -0.2522 
     17 C17        28.6128   -1.8294   -5.4093 C.3       12 UNK        -0.0967 
     18 CA         27.8157   -1.1978   -6.5732 C.3       5 UNK         0.0660 
     19 N          26.3667   -1.2693   -6.3585 N.am      5 UNK        -0.4015 
     20 C          25.4472   -0.9423   -7.2799 C.2       4 UNK         0.4946 
     21 O          25.7225   -0.5912   -8.4264 O.2       4 UNK        -0.5353 
     22 CA         23.9719   -0.9518   -6.8401 C.3       4 UNK         0.0277 
     23 CB         23.3688   -2.3548   -7.0132 C.3       4 UNK        -0.1981 
     24 N          23.7696   -0.5003   -5.4614 N.am      4 UNK        -0.4209 
     25 C          24.1673    0.6793   -4.9611 C.2       3 UNK         0.4942 
     26 O          24.6846    1.5646   -5.6411 O.2       3 UNK        -0.5208 
     27 CA         24.0055    0.9041   -3.4458 C.3       3 UNK         0.0250 
     28 CB         22.8644    1.8971   -3.1726 C.3       3 UNK        -0.1990 
     29 N          23.7784   -0.3200   -2.6668 N.am      3 UNK        -0.4232 
     30 C          24.6391   -1.3419   -2.5515 C.2       2 UNK         0.4993 
     31 O          25.7337   -1.3879   -3.1205 O.2       2 UNK        -0.5286 
     32 CA         24.1356   -2.5444   -1.7379 C.3       2 UNK         0.0209 
     33 CB         23.2890   -3.4709   -2.6284 C.3       2 UNK        -0.1931 
     34 N          25.2271   -3.3266   -1.1611 N.am      2 UNK        -0.4546 
     35 C          26.0012   -2.9542   -0.1351 C.2       1 UNK         0.5154 
     36 O          25.8663   -1.8870    0.4669 O.2       1 UNK        -0.5181 
     37 C          28.2882    0.2498   -6.8116 C.2       5 UNK         0.5014 
     38 O          29.1099    0.4773   -7.7008 O.2       5 UNK        -0.5248 
     39 N          27.7551    1.2008   -6.0311 N.am      6 UNK        -0.4434 
     40 CA         28.0470    2.6288   -6.1614 C.3       6 UNK         0.0363 
     41 CB         27.5707    3.3800   -4.9077 C.3       6 UNK        -0.1936 
     42 C          27.4280    3.2262   -7.4337 C.2       6 UNK         0.5081 
     43 O          28.0950    4.0010   -8.1177 O.2       6 UNK        -0.5248 
     44 N          26.1896    2.8231   -7.7539 N.am      7 UNK        -0.4718 
     45 CA         25.4715    3.2085   -8.9732 C.3       7 UNK         0.0273 
     46 CB         24.0238    2.6987   -8.9014 C.3       7 UNK        -0.1935 
     47 C          26.1610    2.7155  -10.2578 C.2       7 UNK         0.5018 
     48 O          26.2367    3.4674  -11.2300 O.2       7 UNK        -0.5186 
     49 N          26.6814    1.4805  -10.2271 N.am      8 UNK        -0.4240 
     50 CA         27.4903    0.8889  -11.2969 C.3       8 UNK         0.0235 
     51 CB         27.5217   -0.6375  -11.1096 C.3       8 UNK        -0.2000 
     52 C          28.9285    1.4385  -11.3625 C.2       8 UNK         0.4941 
     53 O          29.6070    1.1962  -12.3615 O.2       8 UNK        -0.5273 
     54 N          29.3750    2.1291  -10.3008 N.am      9 UNK        -0.4262 
     55 CA         30.7386    2.6140  -10.0536 C.3       9 UNK         0.0264 
     56 CB         31.1272    3.7194  -11.0580 C.3       9 UNK        -0.1955 
     57 C          31.7645    1.4650   -9.9869 C.2       9 UNK         0.5031 
     58 O          32.8848    1.6012  -10.4843 O.2       9 UNK        -0.5390 
     59 N          31.3632    0.3494   -9.3594 N.am      10 UNK        -0.4204 
     60 CA         32.1323   -0.8948   -9.2545 C.3       10 UNK         0.0237 
     61 CB         31.2396   -1.9882   -8.6445 C.3       10 UNK        -0.1985 
     62 C          33.4390   -0.7564   -8.4550 C.2       10 UNK         0.4970 
     63 O          34.3676   -1.5327   -8.6829 O.2       10 UNK        -0.4914 
     64 N          33.4898    0.2266   -7.5485 N.am      11 UNK        -0.4285 
     65 CA         34.6776    0.5821   -6.7594 C.3       11 UNK         0.1007 
     66 C          35.7378    1.4110   -7.5436 C.2       11 UNK         0.5703 
     67 N          35.4772    1.8498   -8.7712 N.am      11 UNK        -0.7361 
     68 O          36.8269    1.6536   -7.0285 O.2       11 UNK        -0.4986 
     69 C69        34.3065    1.2666   -5.4122 C.3       12 UNK        -0.0947 
     70 S70        32.9415    0.4567   -4.5094 S.3       12 UNK        -0.2240 
     71 C71        33.7360   -1.0761   -3.9354 C.3       12 UNK         0.0194 
     72 H72        26.2535   -8.3627   -0.3326 H         1 UNK         0.0906 
     73 H73        24.6122   -7.7083   -0.3021 H         1 UNK         0.0906 
     74 H74        25.6204   -7.6338    1.1471 H         1 UNK         0.0906 
     75 H75        26.4168   -5.5931    1.4957 H         1 UNK         0.3140 
     76 H76        27.3483   -3.6580    1.3415 H         1 UNK         0.1085 
     77 H77        28.1187   -3.6165   -1.5793 H         1 UNK         0.0836 
     78 H78        28.7565   -4.9355   -0.6465 H         1 UNK         0.0836 
     79 H79        31.9922   -3.3992    0.1751 H         1 UNK         0.0731 
     80 H80        31.0631   -4.7865   -0.3187 H         1 UNK         0.0731 
     81 H81        32.9772   -1.9353   -1.4490 H         1 UNK         0.1312 
     82 H82        32.1480   -2.4792   -5.6167 H         1 UNK         0.1406 
     83 H83        29.9691   -4.7341   -2.6984 H         1 UNK         0.1631 
     84 H84        30.0748   -5.3491   -5.2788 H         1 UNK         0.0717 
     85 H85        30.4997   -4.0431   -6.3583 H         1 UNK         0.0717 
     86 H86        28.3288   -1.3823   -4.4542 H         1 UNK         0.0934 
     87 H87        29.6748   -1.6161   -5.5301 H         1 UNK         0.0934 
     88 H88        28.0406   -1.7569   -7.4843 H         1 UNK         0.0739 
     89 H89        26.0633   -1.5361   -5.4299 H         1 UNK         0.3093 
     90 H90        23.4296   -0.2637   -7.4908 H         1 UNK         0.0818 
     91 H91        23.4902   -2.7064   -8.0390 H         1 UNK         0.0819 
     92 H92        23.8473   -3.0856   -6.3596 H         1 UNK         0.0819 
     93 H93        22.3003   -2.3582   -6.7969 H         1 UNK         0.0819 
     94 H94        23.3441   -1.1591   -4.8271 H         1 UNK         0.3041 
     95 H95        24.9378    1.3495   -3.0918 H         1 UNK         0.0784 
     96 H96        23.0224    2.8321   -3.7127 H         1 UNK         0.0793 
     97 H97        21.8984    1.4992   -3.4866 H         1 UNK         0.0793 
     98 H98        22.7986    2.1465   -2.1133 H         1 UNK         0.0793 
     99 H99        22.8924   -0.3786   -2.1843 H         1 UNK         0.3024 
    100 H100       23.5156   -2.1753   -0.9171 H         1 UNK         0.1171 
    101 H101       23.8693   -3.8666   -3.4639 H         1 UNK         0.0786 
    102 H102       22.9010   -4.3180   -2.0621 H         1 UNK         0.0786 
    103 H103       22.4294   -2.9444   -3.0459 H         1 UNK         0.0786 
    104 H104       25.4394   -4.2223   -1.5933 H         1 UNK         0.2977 
    105 H105       27.0429    0.9422   -5.3633 H         1 UNK         0.3127 
    106 H106       29.1308    2.7464   -6.2326 H         1 UNK         0.0770 
    107 H107       27.8209    4.4397   -4.9736 H         1 UNK         0.0814 
    108 H108       26.4909    3.3106   -4.7740 H         1 UNK         0.0814 
    109 H109       28.0466    2.9913   -4.0074 H         1 UNK         0.0814 
    110 H110       25.6922    2.2265   -7.0960 H         1 UNK         0.2983 
    111 H111       25.4484    4.2999   -9.0095 H         1 UNK         0.0947 
    112 H112       23.9814    1.6097   -8.8854 H         1 UNK         0.0806 
    113 H113       23.4495    3.0344   -9.7658 H         1 UNK         0.0806 
    114 H114       23.5158    3.0669   -8.0097 H         1 UNK         0.0806 
    115 H115       26.4998    0.8918   -9.4173 H         1 UNK         0.3000 
    116 H116       27.0121    1.1084  -12.2539 H         1 UNK         0.0850 
    117 H117       28.0875   -1.1210  -11.9071 H         1 UNK         0.0810 
    118 H118       26.5167   -1.0596  -11.1239 H         1 UNK         0.0810 
    119 H119       27.9874   -0.9157  -10.1630 H         1 UNK         0.0810 
    120 H120       28.7281    2.2715   -9.5355 H         1 UNK         0.3040 
    121 H121       30.7225    3.0636   -9.0595 H         1 UNK         0.0766 
    122 H122       32.0844    4.1692  -10.7915 H         1 UNK         0.0812 
    123 H123       30.3865    4.5188  -11.0721 H         1 UNK         0.0812 
    124 H124       31.2231    3.3311  -12.0724 H         1 UNK         0.0812 
    125 H125       30.4511    0.3601   -8.9016 H         1 UNK         0.3205 
    126 H126       32.4033   -1.1985  -10.2678 H         1 UNK         0.0754 
    127 H127       31.7706   -2.9390   -8.5808 H         1 UNK         0.0769 
    128 H128       30.3473   -2.1550   -9.2485 H         1 UNK         0.0769 
    129 H129       30.9166   -1.7246   -7.6376 H         1 UNK         0.0769 
    130 H130       32.6777    0.8104   -7.4188 H         1 UNK         0.2981 
    131 H131       35.1867   -0.3502   -6.5120 H         1 UNK         0.0541 
    132 H132       36.1807    2.3801   -9.2599 H         1 UNK         0.3459 
    133 H133       34.5919    1.6554   -9.2240 H         1 UNK         0.3459 
    134 H134       34.0038    2.3005   -5.5883 H         1 UNK         0.0612 
    135 H135       35.1767    1.3129   -4.7547 H         1 UNK         0.0612 
    136 H136       34.3814   -0.8512   -3.0847 H         1 UNK         0.0624 
    137 H137       34.3781   -1.4864   -4.7146 H         1 UNK         0.0624 
@<TRIPOS>BOND
     1    1    2 1    
     2    1   72 1    
     3    1   73 1    
     4    1   74 1    
     5    2    3 2    
     6    2    4 am   BACKBONE|DICT|INTERRES
     7    4    5 1    
     8    4   75 1    
     9    5    6 1    
    10    5   35 1    
    11    5   76 1    
    12    6    7 1    
    13    6   77 1    
    14    6   78 1    
    15    7    8 1    
    16    8    9 1    
    17    8   79 1    
    18    8   80 1    
    19    9   10 ar   
    20    9   14 ar   
    21   10   11 ar   
    22   10   81 1    
    23   11   12 ar   
    24   11   71 1    
    25   12   13 ar   
    26   12   82 1    
    27   13   14 ar   
    28   13   15 1    
    29   14   83 1    
    30   15   16 1    
    31   15   84 1    
    32   15   85 1    
    33   16   17 1    
    34   17   18 1    
    35   17   86 1    
    36   17   87 1    
    37   18   19 1    
    38   18   37 1    
    39   18   88 1    
    40   19   20 am   BACKBONE|DICT|INTERRES
    41   19   89 1    
    42   20   21 2    
    43   20   22 1    
    44   22   23 1    
    45   22   24 1    
    46   22   90 1    
    47   23   91 1    
    48   23   92 1    
    49   23   93 1    
    50   24   25 am   BACKBONE|DICT|INTERRES
    51   24   94 1    
    52   25   26 2    
    53   25   27 1    
    54   27   28 1    
    55   27   29 1    
    56   27   95 1    
    57   28   96 1    
    58   28   97 1    
    59   28   98 1    
    60   29   30 am   BACKBONE|DICT|INTERRES
    61   29   99 1    
    62   30   31 2    
    63   30   32 1    
    64   32   33 1    
    65   32   34 1    
    66   32  100 1    
    67   33  101 1    
    68   33  102 1    
    69   33  103 1    
    70   34   35 am   BACKBONE|DICT|INTERRES
    71   34  104 1    
    72   35   36 2    
    73   37   38 2    
    74   37   39 am   BACKBONE|DICT|INTERRES
    75   39   40 1    
    76   39  105 1    
    77   40   41 1    
    78   40   42 1    
    79   40  106 1    
    80   41  107 1    
    81   41  108 1    
    82   41  109 1    
    83   42   43 2    
    84   42   44 am   BACKBONE|DICT|INTERRES
    85   44   45 1    
    86   44  110 1    
    87   45   46 1    
    88   45   47 1    
    89   45  111 1    
    90   46  112 1    
    91   46  113 1    
    92   46  114 1    
    93   47   48 2    
    94   47   49 am   BACKBONE|DICT|INTERRES
    95   49   50 1    
    96   49  115 1    
    97   50   51 1    
    98   50   52 1    
    99   50  116 1    
   100   51  117 1    
   101   51  118 1    
   102   51  119 1    
   103   52   53 2    
   104   52   54 am   BACKBONE|DICT|INTERRES
   105   54   55 1    
   106   54  120 1    
   107   55   56 1    
   108   55   57 1    
   109   55  121 1    
   110   56  122 1    
   111   56  123 1    
   112   56  124 1    
   113   57   58 2    
   114   57   59 am   BACKBONE|DICT|INTERRES
   115   59   60 1    
   116   59  125 1    
   117   60   61 1    
   118   60   62 1    
   119   60  126 1    
   120   61  127 1    
   121   61  128 1    
   122   61  129 1    
   123   62   63 2    
   124   62   64 am   BACKBONE|DICT|INTERRES
   125   64   65 1    
   126   64  130 1    
   127   65   66 1    
   128   65   69 1    
   129   65  131 1    
   130   66   67 am   BACKBONE|DICT|INTERRES
   131   66   68 2    
   132   67  132 1    
   133   67  133 1    
   134   69   70 1    
   135   69  134 1    
   136   69  135 1    
   137   70   71 1    
   138   71  136 1    
   139   71  137 1    
@<TRIPOS>SUBSTRUCTURE
     1 UNK         1 GROUP             0       ****    0 ROOT    
