@<TRIPOS>MOLECULE
3R137
137   139    1
SMALL
USER_CHARGES


@<TRIPOS>ATOM
      1 CA         23.6878   -7.4714   -5.7223 C.3       0 UNK        -0.2020 
      2 C          24.3569   -6.9289   -4.4685 C.2       0 UNK         0.4855 
      3 O          24.2315   -7.5271   -3.3997 O.2       0 UNK        -0.5197 
      4 N          25.0664   -5.7990   -4.5897 N.am      1 UNK        -0.4892 
      5 CA         25.7934   -5.1413   -3.4933 C.3       1 UNK         0.0835 
      6 C6         26.8245   -4.1128   -4.0206 C.3       12 UNK        -0.0855 
      7 S7         28.0853   -4.8942   -5.0819 S.3       12 UNK        -0.2931 
      8 C8         29.5247   -4.9677   -3.9702 C.3       12 UNK         0.0378 
      9 C9         30.1995   -3.6121   -3.8060 C.ar      12 UNK        -0.0802 
     10 C10        31.0510   -3.1274   -4.8031 C.ar      12 UNK        -0.0944 
     11 C11        31.7169   -1.9081   -4.6412 C.ar      12 UNK        -0.0787 
     12 C12        31.5189   -1.1654   -3.4724 C.ar      12 UNK        -0.0862 
     13 C13        30.6577   -1.6336   -2.4738 C.ar      12 UNK        -0.0733 
     14 C14        30.0059   -2.8588   -2.6446 C.ar      12 UNK        -0.0832 
     15 C15        30.4421   -0.8376   -1.1947 C.3       12 UNK         0.0240 
     16 S16        28.8823    0.1017   -1.2383 S.3       12 UNK        -0.2522 
     17 C17        29.3476    1.5498   -2.2481 C.3       12 UNK        -0.0967 
     18 CA         28.9063    1.4255   -3.7290 C.3       5 UNK         0.0660 
     19 N          27.4621    1.1947   -3.8520 N.am      5 UNK        -0.4015 
     20 C          26.8098    0.6708   -4.8974 C.2       4 UNK         0.4946 
     21 O          27.3555    0.4118   -5.9738 O.2       4 UNK        -0.5353 
     22 CA         25.3008    0.4043   -4.7174 C.3       4 UNK         0.0277 
     23 CB         24.7343   -0.5006   -5.8285 C.3       4 UNK        -0.1981 
     24 N          24.9708   -0.1843   -3.4136 N.am      4 UNK        -0.4209 
     25 C          24.9040    0.4692   -2.2445 C.2       3 UNK         0.4942 
     26 O          25.1673    1.6679   -2.1355 O.2       3 UNK        -0.5208 
     27 CA         24.5422   -0.3426   -0.9829 C.3       3 UNK         0.0250 
     28 CB         23.6240    0.4473   -0.0262 C.3       3 UNK        -0.1990 
     29 N          23.9979   -1.6817   -1.2508 N.am      3 UNK        -0.4232 
     30 C          22.8498   -2.0055   -1.8634 C.2       2 UNK         0.4993 
     31 O          22.0521   -1.1804   -2.3110 O.2       2 UNK        -0.5286 
     32 CA         22.5858   -3.5138   -2.0449 C.3       2 UNK         0.0209 
     33 CB         21.2072   -3.8045   -2.6681 C.3       2 UNK        -0.1931 
     34 N          23.6174   -4.1556   -2.8671 N.am      2 UNK        -0.4546 
     35 C          24.8563   -4.4749   -2.4642 C.2       1 UNK         0.5154 
     36 O          25.2762   -4.2391   -1.3298 O.2       1 UNK        -0.5181 
     37 C          29.3878    2.6183   -4.5854 C.2       5 UNK         0.5014 
     38 O          30.0465    3.5305   -4.0829 O.2       5 UNK        -0.5248 
     39 N          29.0561    2.5672   -5.8747 N.am      6 UNK        -0.4434 
     40 CA         29.4496    3.4679   -6.9461 C.3       6 UNK         0.0363 
     41 CB         28.7709    4.8458   -6.8133 C.3       6 UNK        -0.1936 
     42 C          29.0886    2.7642   -8.2540 C.2       6 UNK         0.5081 
     43 O          29.9808    2.3819   -9.0093 O.2       6 UNK        -0.5248 
     44 N          27.7822    2.5544   -8.4620 N.am      7 UNK        -0.4718 
     45 CA         27.1998    1.9568   -9.6649 C.3       7 UNK         0.0273 
     46 CB         25.6729    2.1303   -9.6148 C.3       7 UNK        -0.1935 
     47 C          27.5597    0.4791   -9.8987 C.2       7 UNK         0.5018 
     48 O          27.5115    0.0422  -11.0491 O.2       7 UNK        -0.5186 
     49 N          27.8921   -0.2622   -8.8299 N.am      8 UNK        -0.4240 
     50 CA         28.2008   -1.6951   -8.8655 C.3       8 UNK         0.0235 
     51 CB         28.4715   -2.2038   -7.4411 C.3       8 UNK        -0.2000 
     52 C          29.3586   -2.0852   -9.8007 C.2       8 UNK         0.4941 
     53 O          29.2291   -3.0720  -10.5275 O.2       8 UNK        -0.5273 
     54 N          30.4605   -1.3234   -9.7673 N.am      9 UNK        -0.4262 
     55 CA         31.6772   -1.6160  -10.5324 C.3       9 UNK         0.0264 
     56 CB         32.4596   -2.7654   -9.8573 C.3       9 UNK        -0.1955 
     57 C          32.5503   -0.3681  -10.7531 C.2       9 UNK         0.5031 
     58 O          33.7732   -0.5035  -10.8237 O.2       9 UNK        -0.5390 
     59 N          31.9277    0.8199  -10.8482 N.am      10 UNK        -0.4204 
     60 CA         32.5725    2.1433  -10.9235 C.3       10 UNK         0.0237 
     61 CB         33.3269    2.3244  -12.2587 C.3       10 UNK        -0.1985 
     62 C          33.4522    2.4035   -9.6836 C.2       10 UNK         0.4970 
     63 O          34.6410    2.7051   -9.8057 O.2       10 UNK        -0.4914 
     64 N          32.8415    2.2116   -8.5095 N.am      11 UNK        -0.4285 
     65 CA         33.5081    2.1314   -7.1996 C.3       11 UNK         0.1007 
     66 C          34.0336    3.4856   -6.6407 C.2       11 UNK         0.5703 
     67 N          33.6914    4.6272   -7.2265 N.am      11 UNK        -0.7361 
     68 O          34.7718    3.4982   -5.6587 O.2       11 UNK        -0.4986 
     69 C69        32.6270    1.4022   -6.1473 C.3       12 UNK        -0.0947 
     70 S70        31.8791   -0.1470   -6.7664 S.3       12 UNK        -0.2240 
     71 C71        32.6647   -1.4125   -5.7235 C.3       12 UNK         0.0194 
     72 H72        23.8845   -6.8467   -6.5934 H         1 UNK         0.0906 
     73 H73        24.0522   -8.4757   -5.9368 H         1 UNK         0.0906 
     74 H74        22.6088   -7.5239   -5.5791 H         1 UNK         0.0906 
     75 H75        25.1691   -5.3702   -5.4990 H         1 UNK         0.3140 
     76 H76        26.3402   -5.9145   -2.9483 H         1 UNK         0.1085 
     77 H77        26.3293   -3.3332   -4.6017 H         1 UNK         0.0836 
     78 H78        27.3181   -3.5987   -3.1947 H         1 UNK         0.0836 
     79 H79        30.2446   -5.6778   -4.3800 H         1 UNK         0.0731 
     80 H80        29.2200   -5.3721   -3.0036 H         1 UNK         0.0731 
     81 H81        31.2012   -3.7077   -5.7034 H         1 UNK         0.1312 
     82 H82        32.0333   -0.2230   -3.3439 H         1 UNK         0.1406 
     83 H83        29.3519   -3.2268   -1.8656 H         1 UNK         0.1631 
     84 H84        31.2810   -0.1665   -1.0051 H         1 UNK         0.0717 
     85 H85        30.4103   -1.5226   -0.3461 H         1 UNK         0.0717 
     86 H86        28.8960    2.4335   -1.7930 H         1 UNK         0.0934 
     87 H87        30.4268    1.6991   -2.1800 H         1 UNK         0.0934 
     88 H88        29.4026    0.5459   -4.1437 H         1 UNK         0.0739 
     89 H89        26.9045    1.4311   -3.0376 H         1 UNK         0.3093 
     90 H90        24.8013    1.3725   -4.7918 H         1 UNK         0.0818 
     91 H91        23.6619   -0.6551   -5.7079 H         1 UNK         0.0819 
     92 H92        24.8850   -0.0554   -6.8128 H         1 UNK         0.0819 
     93 H93        25.2170   -1.4781   -5.8390 H         1 UNK         0.0819 
     94 H94        24.7603   -1.1703   -3.4075 H         1 UNK         0.3041 
     95 H95        25.4876   -0.5082   -0.4638 H         1 UNK         0.0784 
     96 H96        24.0980    1.3755    0.2955 H         1 UNK         0.0793 
     97 H97        22.6787    0.7146   -0.4993 H         1 UNK         0.0793 
     98 H98        23.3995   -0.1267    0.8728 H         1 UNK         0.0793 
     99 H99        24.5945   -2.4597   -0.9777 H         1 UNK         0.3024 
    100 H100       22.6010   -3.9637   -1.0491 H         1 UNK         0.1171 
    101 H101       21.0171   -4.8764   -2.7279 H         1 UNK         0.0786 
    102 H102       20.4071   -3.3691   -2.0677 H         1 UNK         0.0786 
    103 H103       21.1219   -3.3917   -3.6742 H         1 UNK         0.0786 
    104 H104       23.3642   -4.3757   -3.8196 H         1 UNK         0.2977 
    105 H105       28.5078    1.7550   -6.1600 H         1 UNK         0.3127 
    106 H106       30.5310    3.6091   -6.9213 H         1 UNK         0.0770 
    107 H107       27.6874    4.7659   -6.7239 H         1 UNK         0.0814 
    108 H108       28.9850    5.4706   -7.6814 H         1 UNK         0.0814 
    109 H109       29.1349    5.3814   -5.9365 H         1 UNK         0.0814 
    110 H110       27.1288    2.8783   -7.7639 H         1 UNK         0.2983 
    111 H111       27.5790    2.5149  -10.5239 H         1 UNK         0.0947 
    112 H112       25.2026    1.7203  -10.5099 H         1 UNK         0.0806 
    113 H113       25.3934    3.1826   -9.5592 H         1 UNK         0.0806 
    114 H114       25.2372    1.6195   -8.7552 H         1 UNK         0.0806 
    115 H115       27.8394    0.1608   -7.9087 H         1 UNK         0.3000 
    116 H116       27.3085   -2.2036   -9.2364 H         1 UNK         0.0850 
    117 H117       29.2525   -1.6295   -6.9425 H         1 UNK         0.0810 
    118 H118       28.7920   -3.2461   -7.4521 H         1 UNK         0.0810 
    119 H119       27.5755   -2.1505   -6.8233 H         1 UNK         0.0810 
    120 H120       30.4999   -0.5482   -9.1183 H         1 UNK         0.3040 
    121 H121       31.3841   -1.9462  -11.5312 H         1 UNK         0.0766 
    122 H122       32.8065   -2.4792   -8.8642 H         1 UNK         0.0812 
    123 H123       33.3362   -3.0455  -10.4427 H         1 UNK         0.0812 
    124 H124       31.8509   -3.6633   -9.7529 H         1 UNK         0.0812 
    125 H125       30.9192    0.8395  -10.7733 H         1 UNK         0.3205 
    126 H126       31.7738    2.8860  -10.9000 H         1 UNK         0.0754 
    127 H127       33.7162    3.3391  -12.3498 H         1 UNK         0.0769 
    128 H128       32.6698    2.1516  -13.1109 H         1 UNK         0.0769 
    129 H129       34.1747    1.6443  -12.3461 H         1 UNK         0.0769 
    130 H130       31.8454    2.0198   -8.5202 H         1 UNK         0.2981 
    131 H131       34.3964    1.5143   -7.3471 H         1 UNK         0.0541 
    132 H132       33.1051    4.6244   -8.0448 H         1 UNK         0.3459 
    133 H133       34.0427    5.4965   -6.8572 H         1 UNK         0.3459 
    134 H134       31.8184    2.0520   -5.8257 H         1 UNK         0.0612 
    135 H135       33.2072    1.1970   -5.2467 H         1 UNK         0.0612 
    136 H136       32.9658   -2.2423   -6.3641 H         1 UNK         0.0624 
    137 H137       33.5851   -1.0356   -5.2764 H         1 UNK         0.0624 
@<TRIPOS>BOND
     1    1    2 1    
     2    1   72 1    
     3    1   73 1    
     4    1   74 1    
     5    2    3 2    
     6    2    4 am   BACKBONE|DICT|INTERRES
     7    4    5 1    
     8    4   75 1    
     9    5    6 1    
    10    5   35 1    
    11    5   76 1    
    12    6    7 1    
    13    6   77 1    
    14    6   78 1    
    15    7    8 1    
    16    8    9 1    
    17    8   79 1    
    18    8   80 1    
    19    9   10 ar   
    20    9   14 ar   
    21   10   11 ar   
    22   10   81 1    
    23   11   12 ar   
    24   11   71 1    
    25   12   13 ar   
    26   12   82 1    
    27   13   14 ar   
    28   13   15 1    
    29   14   83 1    
    30   15   16 1    
    31   15   84 1    
    32   15   85 1    
    33   16   17 1    
    34   17   18 1    
    35   17   86 1    
    36   17   87 1    
    37   18   19 1    
    38   18   37 1    
    39   18   88 1    
    40   19   20 am   BACKBONE|DICT|INTERRES
    41   19   89 1    
    42   20   21 2    
    43   20   22 1    
    44   22   23 1    
    45   22   24 1    
    46   22   90 1    
    47   23   91 1    
    48   23   92 1    
    49   23   93 1    
    50   24   25 am   BACKBONE|DICT|INTERRES
    51   24   94 1    
    52   25   26 2    
    53   25   27 1    
    54   27   28 1    
    55   27   29 1    
    56   27   95 1    
    57   28   96 1    
    58   28   97 1    
    59   28   98 1    
    60   29   30 am   BACKBONE|DICT|INTERRES
    61   29   99 1    
    62   30   31 2    
    63   30   32 1    
    64   32   33 1    
    65   32   34 1    
    66   32  100 1    
    67   33  101 1    
    68   33  102 1    
    69   33  103 1    
    70   34   35 am   BACKBONE|DICT|INTERRES
    71   34  104 1    
    72   35   36 2    
    73   37   38 2    
    74   37   39 am   BACKBONE|DICT|INTERRES
    75   39   40 1    
    76   39  105 1    
    77   40   41 1    
    78   40   42 1    
    79   40  106 1    
    80   41  107 1    
    81   41  108 1    
    82   41  109 1    
    83   42   43 2    
    84   42   44 am   BACKBONE|DICT|INTERRES
    85   44   45 1    
    86   44  110 1    
    87   45   46 1    
    88   45   47 1    
    89   45  111 1    
    90   46  112 1    
    91   46  113 1    
    92   46  114 1    
    93   47   48 2    
    94   47   49 am   BACKBONE|DICT|INTERRES
    95   49   50 1    
    96   49  115 1    
    97   50   51 1    
    98   50   52 1    
    99   50  116 1    
   100   51  117 1    
   101   51  118 1    
   102   51  119 1    
   103   52   53 2    
   104   52   54 am   BACKBONE|DICT|INTERRES
   105   54   55 1    
   106   54  120 1    
   107   55   56 1    
   108   55   57 1    
   109   55  121 1    
   110   56  122 1    
   111   56  123 1    
   112   56  124 1    
   113   57   58 2    
   114   57   59 am   BACKBONE|DICT|INTERRES
   115   59   60 1    
   116   59  125 1    
   117   60   61 1    
   118   60   62 1    
   119   60  126 1    
   120   61  127 1    
   121   61  128 1    
   122   61  129 1    
   123   62   63 2    
   124   62   64 am   BACKBONE|DICT|INTERRES
   125   64   65 1    
   126   64  130 1    
   127   65   66 1    
   128   65   69 1    
   129   65  131 1    
   130   66   67 am   BACKBONE|DICT|INTERRES
   131   66   68 2    
   132   67  132 1    
   133   67  133 1    
   134   69   70 1    
   135   69  134 1    
   136   69  135 1    
   137   70   71 1    
   138   71  136 1    
   139   71  137 1    
@<TRIPOS>SUBSTRUCTURE
     1 UNK         1 GROUP             0       ****    0 ROOT    
