@<TRIPOS>MOLECULE
3R137
137   139    1
SMALL
USER_CHARGES


@<TRIPOS>ATOM
      1 CA         25.1448   -6.3762    1.2911 C.3       0 UNK        -0.2020 
      2 C          25.7190   -4.9685    1.2345 C.2       0 UNK         0.4855 
      3 O          25.7237   -4.2690    2.2476 O.2       0 UNK        -0.5197 
      4 N          26.2058   -4.5488    0.0584 N.am      1 UNK        -0.4892 
      5 CA         26.7725   -3.2150   -0.1851 C.3       1 UNK         0.0835 
      6 C6         27.5681   -3.1839   -1.5152 C.3       12 UNK        -0.0855 
      7 S7         28.7483   -1.7915   -1.6115 S.3       12 UNK        -0.2931 
      8 C8         30.3601   -2.6376   -1.7131 C.3       12 UNK         0.0378 
      9 C9         30.7489   -2.9489   -3.1531 C.ar      12 UNK        -0.0802 
     10 C10        31.7439   -2.2037   -3.7936 C.ar      12 UNK        -0.0944 
     11 C11        32.1150   -2.4886   -5.1131 C.ar      12 UNK        -0.0787 
     12 C12        31.4699   -3.5277   -5.7959 C.ar      12 UNK        -0.0862 
     13 C13        30.4831   -4.2903   -5.1610 C.ar      12 UNK        -0.0733 
     14 C14        30.1369   -4.0001   -3.8393 C.ar      12 UNK        -0.0832 
     15 C15        29.8217   -5.4668   -5.8696 C.3       12 UNK         0.0240 
     16 S16        28.5887   -4.9721   -7.1171 S.3       12 UNK        -0.2522 
     17 C17        27.3781   -3.9817   -6.1665 C.3       12 UNK        -0.0967 
     18 CA         26.9998   -2.6760   -6.9088 C.3       5 UNK         0.0660 
     19 N          25.7886   -2.0467   -6.3704 N.am      5 UNK        -0.4015 
     20 C          25.1111   -1.0814   -7.0099 C.2       4 UNK         0.4946 
     21 O          25.4291   -0.6368   -8.1131 O.2       4 UNK        -0.5353 
     22 CA         23.8894   -0.4872   -6.2922 C.3       4 UNK         0.0277 
     23 CB         22.6913   -1.4474   -6.3678 C.3       4 UNK        -0.1981 
     24 N          24.1218   -0.1015   -4.8970 N.am      4 UNK        -0.4209 
     25 C          25.0779    0.7211   -4.4477 C.2       3 UNK         0.4942 
     26 O          25.9863    1.1570   -5.1529 O.2       3 UNK        -0.5208 
     27 CA         25.0198    1.1586   -2.9714 C.3       3 UNK         0.0250 
     28 CB         24.1679    2.4335   -2.8248 C.3       3 UNK        -0.1990 
     29 N          24.6032    0.1358   -1.9995 N.am      3 UNK        -0.4232 
     30 C          23.4431   -0.5262   -1.8814 C.2       2 UNK         0.4993 
     31 O          22.5028   -0.3998   -2.6679 O.2       2 UNK        -0.5286 
     32 CA         23.3320   -1.5176   -0.7024 C.3       2 UNK         0.0209 
     33 CB         22.0406   -2.3563   -0.7535 C.3       2 UNK        -0.1931 
     34 N          24.4802   -2.4275   -0.6171 N.am      2 UNK        -0.4546 
     35 C          25.6952   -2.1097   -0.1470 C.2       1 UNK         0.5154 
     36 O          25.9759   -0.9905    0.2854 O.2       1 UNK        -0.5181 
     37 C          28.1747   -1.6809   -6.9867 C.2       5 UNK         0.5014 
     38 O          28.8720   -1.6568   -8.0008 O.2       5 UNK        -0.5248 
     39 N          28.3435   -0.8459   -5.9510 N.am      6 UNK        -0.4434 
     40 CA         29.3822    0.1832   -5.9077 C.3       6 UNK         0.0363 
     41 CB         29.4714    0.7962   -4.5025 C.3       6 UNK        -0.1936 
     42 C          29.1885    1.2695   -6.9755 C.2       6 UNK         0.5081 
     43 O          30.1641    1.6811   -7.6039 O.2       6 UNK        -0.5248 
     44 N          27.9310    1.6783   -7.1907 N.am      7 UNK        -0.4718 
     45 CA         27.5201    2.5965   -8.2521 C.3       7 UNK         0.0273 
     46 CB         26.0549    3.0081   -8.0373 C.3       7 UNK        -0.1935 
     47 C          27.7252    2.0061   -9.6571 C.2       7 UNK         0.5018 
     48 O          28.2199    2.7137  -10.5345 O.2       7 UNK        -0.5186 
     49 N          27.3691    0.7253   -9.8409 N.am      8 UNK        -0.4240 
     50 CA         27.5598   -0.0184  -11.0901 C.3       8 UNK         0.0235 
     51 CB         26.8104   -1.3587  -11.0222 C.3       8 UNK        -0.2000 
     52 C          29.0420   -0.2403  -11.4344 C.2       8 UNK         0.4941 
     53 O          29.4268   -0.0528  -12.5894 O.2       8 UNK        -0.5273 
     54 N          29.8476   -0.6165  -10.4311 N.am      9 UNK        -0.4262 
     55 CA         31.2990   -0.7822  -10.5472 C.3       9 UNK         0.0264 
     56 CB         31.8192   -1.5448   -9.3179 C.3       9 UNK        -0.1955 
     57 C          32.0533    0.5505  -10.6981 C.2       9 UNK         0.5031 
     58 O          33.1487    0.5550  -11.2615 O.2       9 UNK        -0.5390 
     59 N          31.4674    1.6376  -10.1736 N.am      10 UNK        -0.4204 
     60 CA         32.0151    2.9941  -10.0666 C.3       10 UNK         0.0237 
     61 CB         32.2294    3.6235  -11.4596 C.3       10 UNK        -0.1985 
     62 C          33.2669    3.0507   -9.1686 C.2       10 UNK         0.4970 
     63 O          34.1863    3.8247   -9.4419 O.2       10 UNK        -0.4914 
     64 N          33.2795    2.2231   -8.1152 N.am      11 UNK        -0.4285 
     65 CA         34.3800    2.1124   -7.1457 C.3       11 UNK         0.1007 
     66 C          34.3660    3.1928   -6.0247 C.2       11 UNK         0.5703 
     67 N          33.3261    4.0099   -5.9002 N.am      11 UNK        -0.7361 
     68 O          35.3270    3.3043   -5.2668 O.2       11 UNK        -0.4986 
     69 C69        34.5068    0.6693   -6.5877 C.3       12 UNK        -0.0947 
     70 S70        33.0190    0.0884   -5.7097 S.3       12 UNK        -0.2240 
     71 C71        33.2510   -1.7168   -5.7793 C.3       12 UNK         0.0194 
     72 H72        25.6839   -6.9717    2.0274 H         1 UNK         0.0906 
     73 H73        24.0956   -6.3415    1.5834 H         1 UNK         0.0906 
     74 H74        25.2120   -6.8848    0.3296 H         1 UNK         0.0906 
     75 H75        26.1844   -5.1748   -0.7348 H         1 UNK         0.3140 
     76 H76        27.4679   -3.0092    0.6324 H         1 UNK         0.1085 
     77 H77        28.1238   -4.1157   -1.6108 H         1 UNK         0.0836 
     78 H78        26.9021   -3.1464   -2.3796 H         1 UNK         0.0836 
     79 H79        31.1118   -1.9928   -1.2552 H         1 UNK         0.0731 
     80 H80        30.3501   -3.5517   -1.1178 H         1 UNK         0.0731 
     81 H81        32.2397   -1.4027   -3.2625 H         1 UNK         0.1312 
     82 H82        31.7488   -3.7616   -6.8143 H         1 UNK         0.1406 
     83 H83        29.3899   -4.6026   -3.3453 H         1 UNK         0.1631 
     84 H84        29.3422   -6.1312   -5.1490 H         1 UNK         0.0717 
     85 H85        30.5910   -6.0643   -6.3609 H         1 UNK         0.0717 
     86 H86        26.4912   -4.6031   -6.0331 H         1 UNK         0.0934 
     87 H87        27.7449   -3.7662   -5.1632 H         1 UNK         0.0934 
     88 H88        26.7607   -2.9537   -7.9381 H         1 UNK         0.0739 
     89 H89        25.4643   -2.3528   -5.4652 H         1 UNK         0.3093 
     90 H90        23.6206    0.4257   -6.8276 H         1 UNK         0.0818 
     91 H91        21.7851   -0.9796   -5.9822 H         1 UNK         0.0819 
     92 H92        22.4887   -1.7407   -7.3989 H         1 UNK         0.0819 
     93 H93        22.8645   -2.3595   -5.7955 H         1 UNK         0.0819 
     94 H94        23.4043   -0.3616   -4.2216 H         1 UNK         0.3041 
     95 H95        26.0431    1.4174   -2.6937 H         1 UNK         0.0784 
     96 H96        24.5291    3.2220   -3.4867 H         1 UNK         0.0793 
     97 H97        23.1214    2.2549   -3.0745 H         1 UNK         0.0793 
     98 H98        24.2081    2.8221   -1.8072 H         1 UNK         0.0793 
     99 H99        25.2977   -0.0797   -1.2885 H         1 UNK         0.3024 
    100 H100       23.2987   -0.9150    0.2086 H         1 UNK         0.1171 
    101 H101       21.9592   -3.0132    0.1128 H         1 UNK         0.0786 
    102 H102       21.9960   -2.9751   -1.6506 H         1 UNK         0.0786 
    103 H103       21.1570   -1.7164   -0.7541 H         1 UNK         0.0786 
    104 H104       24.3379   -3.3662   -0.9608 H         1 UNK         0.2977 
    105 H105       27.6994   -0.8786   -5.1755 H         1 UNK         0.3127 
    106 H106       30.3232   -0.3195   -6.1247 H         1 UNK         0.0770 
    107 H107       28.5358    1.2683   -4.2021 H         1 UNK         0.0814 
    108 H108       30.2515    1.5577   -4.4620 H         1 UNK         0.0814 
    109 H109       29.7239    0.0407   -3.7598 H         1 UNK         0.0814 
    110 H110       27.1977    1.3269   -6.5779 H         1 UNK         0.2983 
    111 H111       28.1415    3.4915   -8.1759 H         1 UNK         0.0947 
    112 H112       25.7297    3.7116   -8.8049 H         1 UNK         0.0806 
    113 H113       25.9185    3.4943   -7.0711 H         1 UNK         0.0806 
    114 H114       25.3841    2.1490   -8.0742 H         1 UNK         0.0806 
    115 H115       26.9119    0.2303   -9.0794 H         1 UNK         0.3000 
    116 H116       27.1200    0.5732  -11.8959 H         1 UNK         0.0850 
    117 H117       26.9220   -1.9166  -11.9528 H         1 UNK         0.0810 
    118 H118       25.7429   -1.2076  -10.8604 H         1 UNK         0.0810 
    119 H119       27.1840   -1.9899  -10.2156 H         1 UNK         0.0810 
    120 H120       29.4369   -0.8307   -9.5219 H         1 UNK         0.3040 
    121 H121       31.5041   -1.3820  -11.4364 H         1 UNK         0.0766 
    122 H122       32.8975   -1.6984   -9.3776 H         1 UNK         0.0812 
    123 H123       31.3537   -2.5271   -9.2339 H         1 UNK         0.0812 
    124 H124       31.6152   -1.0012   -8.3943 H         1 UNK         0.0812 
    125 H125       30.6030    1.4946   -9.6626 H         1 UNK         0.3205 
    126 H126       31.2518    3.5829   -9.5555 H         1 UNK         0.0754 
    127 H127       32.4962    4.6776  -11.3752 H         1 UNK         0.0769 
    128 H128       31.3220    3.5667  -12.0613 H         1 UNK         0.0769 
    129 H129       33.0298    3.1292  -12.0108 H         1 UNK         0.0769 
    130 H130       32.4555    1.6685   -7.9201 H         1 UNK         0.2981 
    131 H131       35.3063    2.2988   -7.6923 H         1 UNK         0.0541 
    132 H132       32.5309    3.9183   -6.5112 H         1 UNK         0.3459 
    133 H133       33.3319    4.7105   -5.1760 H         1 UNK         0.3459 
    134 H134       35.3629    0.5868   -5.9157 H         1 UNK         0.0612 
    135 H135       34.7099   -0.0149   -7.4131 H         1 UNK         0.0612 
    136 H136       33.3598   -2.0189   -6.8214 H         1 UNK         0.0624 
    137 H137       34.1876   -1.9724   -5.2822 H         1 UNK         0.0624 
@<TRIPOS>BOND
     1    1    2 1    
     2    1   72 1    
     3    1   73 1    
     4    1   74 1    
     5    2    3 2    
     6    2    4 am   BACKBONE|DICT|INTERRES
     7    4    5 1    
     8    4   75 1    
     9    5    6 1    
    10    5   35 1    
    11    5   76 1    
    12    6    7 1    
    13    6   77 1    
    14    6   78 1    
    15    7    8 1    
    16    8    9 1    
    17    8   79 1    
    18    8   80 1    
    19    9   10 ar   
    20    9   14 ar   
    21   10   11 ar   
    22   10   81 1    
    23   11   12 ar   
    24   11   71 1    
    25   12   13 ar   
    26   12   82 1    
    27   13   14 ar   
    28   13   15 1    
    29   14   83 1    
    30   15   16 1    
    31   15   84 1    
    32   15   85 1    
    33   16   17 1    
    34   17   18 1    
    35   17   86 1    
    36   17   87 1    
    37   18   19 1    
    38   18   37 1    
    39   18   88 1    
    40   19   20 am   BACKBONE|DICT|INTERRES
    41   19   89 1    
    42   20   21 2    
    43   20   22 1    
    44   22   23 1    
    45   22   24 1    
    46   22   90 1    
    47   23   91 1    
    48   23   92 1    
    49   23   93 1    
    50   24   25 am   BACKBONE|DICT|INTERRES
    51   24   94 1    
    52   25   26 2    
    53   25   27 1    
    54   27   28 1    
    55   27   29 1    
    56   27   95 1    
    57   28   96 1    
    58   28   97 1    
    59   28   98 1    
    60   29   30 am   BACKBONE|DICT|INTERRES
    61   29   99 1    
    62   30   31 2    
    63   30   32 1    
    64   32   33 1    
    65   32   34 1    
    66   32  100 1    
    67   33  101 1    
    68   33  102 1    
    69   33  103 1    
    70   34   35 am   BACKBONE|DICT|INTERRES
    71   34  104 1    
    72   35   36 2    
    73   37   38 2    
    74   37   39 am   BACKBONE|DICT|INTERRES
    75   39   40 1    
    76   39  105 1    
    77   40   41 1    
    78   40   42 1    
    79   40  106 1    
    80   41  107 1    
    81   41  108 1    
    82   41  109 1    
    83   42   43 2    
    84   42   44 am   BACKBONE|DICT|INTERRES
    85   44   45 1    
    86   44  110 1    
    87   45   46 1    
    88   45   47 1    
    89   45  111 1    
    90   46  112 1    
    91   46  113 1    
    92   46  114 1    
    93   47   48 2    
    94   47   49 am   BACKBONE|DICT|INTERRES
    95   49   50 1    
    96   49  115 1    
    97   50   51 1    
    98   50   52 1    
    99   50  116 1    
   100   51  117 1    
   101   51  118 1    
   102   51  119 1    
   103   52   53 2    
   104   52   54 am   BACKBONE|DICT|INTERRES
   105   54   55 1    
   106   54  120 1    
   107   55   56 1    
   108   55   57 1    
   109   55  121 1    
   110   56  122 1    
   111   56  123 1    
   112   56  124 1    
   113   57   58 2    
   114   57   59 am   BACKBONE|DICT|INTERRES
   115   59   60 1    
   116   59  125 1    
   117   60   61 1    
   118   60   62 1    
   119   60  126 1    
   120   61  127 1    
   121   61  128 1    
   122   61  129 1    
   123   62   63 2    
   124   62   64 am   BACKBONE|DICT|INTERRES
   125   64   65 1    
   126   64  130 1    
   127   65   66 1    
   128   65   69 1    
   129   65  131 1    
   130   66   67 am   BACKBONE|DICT|INTERRES
   131   66   68 2    
   132   67  132 1    
   133   67  133 1    
   134   69   70 1    
   135   69  134 1    
   136   69  135 1    
   137   70   71 1    
   138   71  136 1    
   139   71  137 1    
@<TRIPOS>SUBSTRUCTURE
     1 UNK         1 GROUP             0       ****    0 ROOT    
