@<TRIPOS>MOLECULE
3R137
137   139    1
SMALL
USER_CHARGES


@<TRIPOS>ATOM
      1 CA         24.3438   -3.9320   -7.9448 C.3       0 UNK        -0.2020 
      2 C          24.8072   -3.8295   -6.5004 C.2       0 UNK         0.4855 
      3 O          24.3911   -2.9110   -5.7938 O.2       0 UNK        -0.5197 
      4 N          25.6665   -4.7600   -6.0599 N.am      1 UNK        -0.4892 
      5 CA         26.2530   -4.8382   -4.7142 C.3       1 UNK         0.0835 
      6 C6         27.3297   -3.7454   -4.4615 C.3       12 UNK        -0.0855 
      7 S7         28.8377   -3.9874   -5.4593 S.3       12 UNK        -0.2931 
      8 C8         30.1158   -4.1739   -4.1715 C.3       12 UNK         0.0378 
      9 C9         30.5164   -2.8375   -3.5558 C.ar      12 UNK        -0.0802 
     10 C10        31.5863   -2.1119   -4.0893 C.ar      12 UNK        -0.0944 
     11 C11        31.9829   -0.8945   -3.5203 C.ar      12 UNK        -0.0787 
     12 C12        31.2876   -0.4049   -2.4085 C.ar      12 UNK        -0.0862 
     13 C13        30.2214   -1.1239   -1.8589 C.ar      12 UNK        -0.0733 
     14 C14        29.8491   -2.3426   -2.4308 C.ar      12 UNK        -0.0832 
     15 C15        29.4950   -0.6122   -0.6204 C.3       12 UNK         0.0240 
     16 S16        27.7885   -0.0804   -0.9810 S.3       12 UNK        -0.2522 
     17 C17        28.0730    1.3636   -2.0549 C.3       12 UNK        -0.0967 
     18 CA         27.7403    1.0617   -3.5409 C.3       5 UNK         0.0660 
     19 N          26.3151    1.1983   -3.8349 N.am      5 UNK        -0.4015 
     20 C          25.4101    0.2178   -3.8597 C.2       4 UNK         0.4946 
     21 O          25.6463   -0.9452   -3.5191 O.2       4 UNK        -0.5353 
     22 CA         24.0041    0.6034   -4.3558 C.3       4 UNK         0.0277 
     23 CB         24.0189    1.3102   -5.7262 C.3       4 UNK        -0.1981 
     24 N          23.2113   -0.6140   -4.4514 N.am      4 UNK        -0.4209 
     25 C          21.9181   -0.7621   -4.1452 C.2       3 UNK         0.4942 
     26 O          21.1523    0.1702   -3.8983 O.2       3 UNK        -0.5208 
     27 CA         21.4178   -2.2141   -4.0385 C.3       3 UNK         0.0250 
     28 CB         20.9910   -2.7596   -5.4111 C.3       3 UNK        -0.1990 
     29 N          22.4716   -3.0568   -3.4630 N.am      3 UNK        -0.4232 
     30 C          22.7240   -3.1236   -2.1472 C.2       2 UNK         0.4993 
     31 O          21.9354   -2.7257   -1.2881 O.2       2 UNK        -0.5286 
     32 CA         24.1003   -3.6417   -1.6926 C.3       2 UNK         0.0209 
     33 CB         23.9894   -4.8549   -0.7445 C.3       2 UNK        -0.1931 
     34 N          25.0587   -3.8584   -2.7852 N.am      2 UNK        -0.4546 
     35 C          25.1443   -4.8932   -3.6357 C.2       1 UNK         0.5154 
     36 O          24.3830   -5.8618   -3.6204 O.2       1 UNK        -0.5181 
     37 C          28.4731    2.0398   -4.4727 C.2       5 UNK         0.5014 
     38 O          27.8485    2.9673   -4.9982 O.2       5 UNK        -0.5248 
     39 N          29.7841    1.8222   -4.6469 N.am      6 UNK        -0.4434 
     40 CA         30.7344    2.6114   -5.4424 C.3       6 UNK         0.0363 
     41 CB         30.8532    4.0633   -4.9363 C.3       6 UNK        -0.1936 
     42 C          30.4631    2.5393   -6.9523 C.2       6 UNK         0.5081 
     43 O          31.2215    1.8963   -7.6774 O.2       6 UNK        -0.5248 
     44 N          29.3642    3.1580   -7.3985 N.am      7 UNK        -0.4718 
     45 CA         28.8886    3.1333   -8.7853 C.3       7 UNK         0.0273 
     46 CB         27.7619    4.1656   -8.9479 C.3       7 UNK        -0.1935 
     47 C          28.4128    1.7404   -9.2361 C.2       7 UNK         0.5018 
     48 O          28.4213    1.4605  -10.4341 O.2       7 UNK        -0.5186 
     49 N          28.0331    0.8953   -8.2666 N.am      8 UNK        -0.4240 
     50 CA         27.5906   -0.4890   -8.4429 C.3       8 UNK         0.0235 
     51 CB         27.2314   -1.0744   -7.0696 C.3       8 UNK        -0.2000 
     52 C          28.6177   -1.3955   -9.1423 C.2       8 UNK         0.4941 
     53 O          28.2276   -2.2008   -9.9885 O.2       8 UNK        -0.5273 
     54 N          29.8975   -1.2461   -8.7760 N.am      9 UNK        -0.4262 
     55 CA         31.0145   -2.0309   -9.3113 C.3       9 UNK         0.0264 
     56 CB         31.6302   -2.8579   -8.1687 C.3       9 UNK        -0.1955 
     57 C          32.0735   -1.1570  -10.0071 C.2       9 UNK         0.5031 
     58 O          33.0969   -1.6969  -10.4303 O.2       9 UNK        -0.5390 
     59 N          31.8205    0.1579  -10.1159 N.am      10 UNK        -0.4204 
     60 CA         32.7117    1.2004  -10.6416 C.3       10 UNK         0.0237 
     61 CB         32.9180    1.0363  -12.1627 C.3       10 UNK        -0.1985 
     62 C          34.0320    1.2740   -9.8500 C.2       10 UNK         0.4970 
     63 O          35.1144    1.1654  -10.4299 O.2       10 UNK        -0.4914 
     64 N          33.9024    1.4257   -8.5263 N.am      11 UNK        -0.4285 
     65 CA         35.0101    1.4126   -7.5557 C.3       11 UNK         0.1007 
     66 C          35.9989    2.6108   -7.6611 C.2       11 UNK         0.5703 
     67 N          35.6525    3.7041   -8.3305 N.am      11 UNK        -0.7361 
     68 O          37.1026    2.5437   -7.1249 O.2       11 UNK        -0.4986 
     69 C69        34.5009    1.2644   -6.0971 C.3       12 UNK        -0.0947 
     70 S70        33.3540   -0.1335   -5.8596 S.3       12 UNK        -0.2240 
     71 C71        33.1940   -0.1230   -4.0439 C.3       12 UNK         0.0194 
     72 H72        24.8055   -4.7716   -8.4639 H         1 UNK         0.0906 
     73 H73        23.2625   -4.0599   -7.9831 H         1 UNK         0.0906 
     74 H74        24.5989   -3.0192   -8.4826 H         1 UNK         0.0906 
     75 H75        25.9509   -5.4988   -6.6879 H         1 UNK         0.3140 
     76 H76        26.7517   -5.8071   -4.6523 H         1 UNK         0.1085 
     77 H77        27.6121   -3.7379   -3.4110 H         1 UNK         0.0836 
     78 H78        26.9398   -2.7532   -4.6829 H         1 UNK         0.0836 
     79 H79        30.9908   -4.6463   -4.6207 H         1 UNK         0.0731 
     80 H80        29.7685   -4.8628   -3.3999 H         1 UNK         0.0731 
     81 H81        32.1224   -2.5097   -4.9394 H         1 UNK         0.1312 
     82 H82        31.5962    0.5251   -1.9497 H         1 UNK         0.1406 
     83 H83        29.0421   -2.9044   -1.9834 H         1 UNK         0.1631 
     84 H84        30.0404    0.2125   -0.1588 H         1 UNK         0.0717 
     85 H85        29.4620   -1.4070    0.1262 H         1 UNK         0.0717 
     86 H86        27.4709    2.1965   -1.6871 H         1 UNK         0.0934 
     87 H87        29.1100    1.6803   -1.9279 H         1 UNK         0.0934 
     88 H88        28.0722    0.0539   -3.8037 H         1 UNK         0.0739 
     89 H89        26.0707    2.1155   -4.1874 H         1 UNK         0.3093 
     90 H90        23.5661    1.2674   -3.6076 H         1 UNK         0.0818 
     91 H91        24.6002    2.2324   -5.7036 H         1 UNK         0.0819 
     92 H92        24.4369    0.6734   -6.5055 H         1 UNK         0.0819 
     93 H93        23.0088    1.5811   -6.0339 H         1 UNK         0.0819 
     94 H94        23.7634   -1.4452   -4.6544 H         1 UNK         0.3041 
     95 H95        20.5435   -2.2272   -3.3840 H         1 UNK         0.0784 
     96 H96        20.1569   -2.1825   -5.8123 H         1 UNK         0.0793 
     97 H97        21.7976   -2.7099   -6.1421 H         1 UNK         0.0793 
     98 H98        20.6642   -3.7972   -5.3414 H         1 UNK         0.0793 
     99 H99        23.1867   -3.3807   -4.1045 H         1 UNK         0.3024 
    100 H100       24.5293   -2.8237   -1.1107 H         1 UNK         0.1171 
    101 H101       23.4686   -5.6926   -1.2085 H         1 UNK         0.0786 
    102 H102       24.9716   -5.2016   -0.4235 H         1 UNK         0.0786 
    103 H103       23.4300   -4.5923    0.1543 H         1 UNK         0.0786 
    104 H104       25.6478   -3.0528   -2.9752 H         1 UNK         0.2977 
    105 H105       30.1854    1.0059   -4.2037 H         1 UNK         0.3127 
    106 H106       31.7052    2.1490   -5.2821 H         1 UNK         0.0770 
    107 H107       29.9193    4.6179   -5.0275 H         1 UNK         0.0814 
    108 H108       31.6090    4.6095   -5.5024 H         1 UNK         0.0814 
    109 H109       31.1536    4.0903   -3.8890 H         1 UNK         0.0814 
    110 H110       28.7560    3.5817   -6.7045 H         1 UNK         0.2983 
    111 H111       29.7191    3.4207   -9.4340 H         1 UNK         0.0947 
    112 H112       27.3976    4.1882   -9.9760 H         1 UNK         0.0806 
    113 H113       28.1075    5.1709   -8.7062 H         1 UNK         0.0806 
    114 H114       26.9107    3.9391   -8.3043 H         1 UNK         0.0806 
    115 H115       28.0527    1.2481   -7.3217 H         1 UNK         0.3000 
    116 H116       26.6904   -0.4737   -9.0608 H         1 UNK         0.0850 
    117 H117       28.0611   -1.0058   -6.3648 H         1 UNK         0.0810 
    118 H118       26.9767   -2.1298   -7.1583 H         1 UNK         0.0810 
    119 H119       26.3722   -0.5739   -6.6285 H         1 UNK         0.0810 
    120 H120       30.1230   -0.5677   -8.0609 H         1 UNK         0.3040 
    121 H121       30.6591   -2.7293  -10.0716 H         1 UNK         0.0766 
    122 H122       30.8933   -3.5270   -7.7247 H         1 UNK         0.0812 
    123 H123       32.0207   -2.2201   -7.3778 H         1 UNK         0.0812 
    124 H124       32.4534   -3.4777   -8.5261 H         1 UNK         0.0812 
    125 H125       30.9540    0.4964   -9.7226 H         1 UNK         0.3205 
    126 H126       32.2022    2.1517  -10.4796 H         1 UNK         0.0754 
    127 H127       33.5028    1.8631  -12.5676 H         1 UNK         0.0769 
    128 H128       31.9650    1.0238  -12.6917 H         1 UNK         0.0769 
    129 H129       33.4479    0.1147  -12.4056 H         1 UNK         0.0769 
    130 H130       32.9664    1.5140   -8.1362 H         1 UNK         0.2981 
    131 H131       35.6006    0.5225   -7.7806 H         1 UNK         0.0541 
    132 H132       34.7506    3.7658   -8.7742 H         1 UNK         0.3459 
    133 H133       36.3025    4.4714   -8.3947 H         1 UNK         0.3459 
    134 H134       33.9976    2.1792   -5.7804 H         1 UNK         0.0612 
    135 H135       35.3433    1.1260   -5.4166 H         1 UNK         0.0612 
    136 H136       33.1477    0.9133   -3.7055 H         1 UNK         0.0624 
    137 H137       34.0985   -0.5504   -3.6096 H         1 UNK         0.0624 
@<TRIPOS>BOND
     1    1    2 1    
     2    1   72 1    
     3    1   73 1    
     4    1   74 1    
     5    2    3 2    
     6    2    4 am   BACKBONE|DICT|INTERRES
     7    4    5 1    
     8    4   75 1    
     9    5    6 1    
    10    5   35 1    
    11    5   76 1    
    12    6    7 1    
    13    6   77 1    
    14    6   78 1    
    15    7    8 1    
    16    8    9 1    
    17    8   79 1    
    18    8   80 1    
    19    9   10 ar   
    20    9   14 ar   
    21   10   11 ar   
    22   10   81 1    
    23   11   12 ar   
    24   11   71 1    
    25   12   13 ar   
    26   12   82 1    
    27   13   14 ar   
    28   13   15 1    
    29   14   83 1    
    30   15   16 1    
    31   15   84 1    
    32   15   85 1    
    33   16   17 1    
    34   17   18 1    
    35   17   86 1    
    36   17   87 1    
    37   18   19 1    
    38   18   37 1    
    39   18   88 1    
    40   19   20 am   BACKBONE|DICT|INTERRES
    41   19   89 1    
    42   20   21 2    
    43   20   22 1    
    44   22   23 1    
    45   22   24 1    
    46   22   90 1    
    47   23   91 1    
    48   23   92 1    
    49   23   93 1    
    50   24   25 am   BACKBONE|DICT|INTERRES
    51   24   94 1    
    52   25   26 2    
    53   25   27 1    
    54   27   28 1    
    55   27   29 1    
    56   27   95 1    
    57   28   96 1    
    58   28   97 1    
    59   28   98 1    
    60   29   30 am   BACKBONE|DICT|INTERRES
    61   29   99 1    
    62   30   31 2    
    63   30   32 1    
    64   32   33 1    
    65   32   34 1    
    66   32  100 1    
    67   33  101 1    
    68   33  102 1    
    69   33  103 1    
    70   34   35 am   BACKBONE|DICT|INTERRES
    71   34  104 1    
    72   35   36 2    
    73   37   38 2    
    74   37   39 am   BACKBONE|DICT|INTERRES
    75   39   40 1    
    76   39  105 1    
    77   40   41 1    
    78   40   42 1    
    79   40  106 1    
    80   41  107 1    
    81   41  108 1    
    82   41  109 1    
    83   42   43 2    
    84   42   44 am   BACKBONE|DICT|INTERRES
    85   44   45 1    
    86   44  110 1    
    87   45   46 1    
    88   45   47 1    
    89   45  111 1    
    90   46  112 1    
    91   46  113 1    
    92   46  114 1    
    93   47   48 2    
    94   47   49 am   BACKBONE|DICT|INTERRES
    95   49   50 1    
    96   49  115 1    
    97   50   51 1    
    98   50   52 1    
    99   50  116 1    
   100   51  117 1    
   101   51  118 1    
   102   51  119 1    
   103   52   53 2    
   104   52   54 am   BACKBONE|DICT|INTERRES
   105   54   55 1    
   106   54  120 1    
   107   55   56 1    
   108   55   57 1    
   109   55  121 1    
   110   56  122 1    
   111   56  123 1    
   112   56  124 1    
   113   57   58 2    
   114   57   59 am   BACKBONE|DICT|INTERRES
   115   59   60 1    
   116   59  125 1    
   117   60   61 1    
   118   60   62 1    
   119   60  126 1    
   120   61  127 1    
   121   61  128 1    
   122   61  129 1    
   123   62   63 2    
   124   62   64 am   BACKBONE|DICT|INTERRES
   125   64   65 1    
   126   64  130 1    
   127   65   66 1    
   128   65   69 1    
   129   65  131 1    
   130   66   67 am   BACKBONE|DICT|INTERRES
   131   66   68 2    
   132   67  132 1    
   133   67  133 1    
   134   69   70 1    
   135   69  134 1    
   136   69  135 1    
   137   70   71 1    
   138   71  136 1    
   139   71  137 1    
@<TRIPOS>SUBSTRUCTURE
     1 UNK         1 GROUP             0       ****    0 ROOT    
