@<TRIPOS>MOLECULE
3R137
137   139    1
SMALL
USER_CHARGES


@<TRIPOS>ATOM
      1 CA         26.9479   -6.1076    0.4004 C.3       0 UNK        -0.2020 
      2 C          26.8560   -4.8744   -0.4868 C.2       0 UNK         0.4855 
      3 O          26.6161   -5.0163   -1.6847 O.2       0 UNK        -0.5197 
      4 N          27.0681   -3.6899    0.1055 N.am      1 UNK        -0.4892 
      5 CA         26.9880   -2.3413   -0.4766 C.3       1 UNK         0.0835 
      6 C6         27.8768   -2.1094   -1.7304 C.3       12 UNK        -0.0855 
      7 S7         29.6451   -2.0519   -1.2856 S.3       12 UNK        -0.2931 
      8 C8         30.2543   -3.6628   -1.8766 C.3       12 UNK         0.0378 
      9 C9         30.5874   -3.6646   -3.3635 C.ar      12 UNK        -0.0802 
     10 C10        31.5930   -2.8287   -3.8582 C.ar      12 UNK        -0.0944 
     11 C11        31.9592   -2.8702   -5.2071 C.ar      12 UNK        -0.0787 
     12 C12        31.3199   -3.7741   -6.0628 C.ar      12 UNK        -0.0862 
     13 C13        30.3262   -4.6316   -5.5774 C.ar      12 UNK        -0.0733 
     14 C14        29.9507   -4.5575   -4.2310 C.ar      12 UNK        -0.0832 
     15 C15        29.7169   -5.6965   -6.4836 C.3       12 UNK         0.0240 
     16 S16        28.6985   -5.0119   -7.8278 S.3       12 UNK        -0.2522 
     17 C17        27.3055   -4.2879   -6.8991 C.3       12 UNK        -0.0967 
     18 CA         26.7906   -2.9648   -7.5246 C.3       5 UNK         0.0660 
     19 N          25.4934   -2.5331   -6.9901 N.am      5 UNK        -0.4015 
     20 C          25.2037   -2.2489   -5.7140 C.2       4 UNK         0.4946 
     21 O          25.9919   -2.4000   -4.7774 O.2       4 UNK        -0.5353 
     22 CA         23.8171   -1.6418   -5.4486 C.3       4 UNK         0.0277 
     23 CB         22.8745   -2.6931   -4.8422 C.3       4 UNK        -0.1981 
     24 N          23.8958   -0.4910   -4.5472 N.am      4 UNK        -0.4209 
     25 C          24.6565    0.5983   -4.7173 C.2       3 UNK         0.4942 
     26 O          25.3455    0.7994   -5.7185 O.2       3 UNK        -0.5208 
     27 CA         24.6822    1.6387   -3.5818 C.3       3 UNK         0.0250 
     28 CB         23.6161    2.7279   -3.8093 C.3       3 UNK        -0.1990 
     29 N          24.6100    1.0814   -2.2199 N.am      3 UNK        -0.4232 
     30 C          23.5966    0.4397   -1.6165 C.2       2 UNK         0.4993 
     31 O          22.5123    0.2064   -2.1536 O.2       2 UNK        -0.5286 
     32 CA         23.8769   -0.0570   -0.1854 C.3       2 UNK         0.0209 
     33 CB         22.7292   -0.9102    0.3993 C.3       2 UNK        -0.1931 
     34 N          25.1669   -0.7578   -0.0860 N.am      2 UNK        -0.4546 
     35 C          25.5280   -1.8946   -0.7063 C.2       1 UNK         0.5154 
     36 O          24.7757   -2.5521   -1.4259 O.2       1 UNK        -0.5181 
     37 C          27.8446   -1.8363   -7.4883 C.2       5 UNK         0.5014 
     38 O          28.4123   -1.5159   -8.5322 O.2       5 UNK        -0.5248 
     39 N          28.0697   -1.2354   -6.3137 N.am      6 UNK        -0.4434 
     40 CA         29.0850   -0.2130   -6.0616 C.3       6 UNK         0.0363 
     41 CB         29.0763    0.1717   -4.5763 C.3       6 UNK        -0.1936 
     42 C          28.9702    1.0347   -6.9507 C.2       6 UNK         0.5081 
     43 O          29.9918    1.5203   -7.4373 O.2       6 UNK        -0.5248 
     44 N          27.7393    1.5113   -7.1842 N.am      7 UNK        -0.4718 
     45 CA         27.4562    2.6429   -8.0724 C.3       7 UNK         0.0273 
     46 CB         26.0234    3.1421   -7.8281 C.3       7 UNK        -0.1935 
     47 C          27.6656    2.3173   -9.5621 C.2       7 UNK         0.5018 
     48 O          27.9960    3.2219  -10.3290 O.2       7 UNK        -0.5186 
     49 N          27.4817    1.0455   -9.9458 N.am      8 UNK        -0.4240 
     50 CA         27.7256    0.5502  -11.3031 C.3       8 UNK         0.0235 
     51 CB         26.9070   -0.7278  -11.5517 C.3       8 UNK        -0.2000 
     52 C          29.2226    0.3059  -11.5476 C.2       8 UNK         0.4941 
     53 O          29.7278    0.6582  -12.6138 O.2       8 UNK        -0.5273 
     54 N          29.9073   -0.2636  -10.5452 N.am      9 UNK        -0.4262 
     55 CA         31.3590   -0.4573  -10.5161 C.3       9 UNK         0.0264 
     56 CB         31.7177   -1.3747   -9.3347 C.3       9 UNK        -0.1955 
     57 C          32.1437    0.8642  -10.4221 C.2       9 UNK         0.5031 
     58 O          33.2825    0.9184  -10.8883 O.2       9 UNK        -0.5390 
     59 N          31.5238    1.8870   -9.8136 N.am      10 UNK        -0.4204 
     60 CA         32.0554    3.2211   -9.5157 C.3       10 UNK         0.0237 
     61 CB         32.3897    3.9952  -10.8088 C.3       10 UNK        -0.1985 
     62 C          33.2204    3.1773   -8.5082 C.2       10 UNK         0.4970 
     63 O          34.1453    3.9866   -8.6006 O.2       10 UNK        -0.4914 
     64 N          33.1508    2.2306   -7.5637 N.am      11 UNK        -0.4285 
     65 CA         34.1509    2.0205   -6.5068 C.3       11 UNK         0.1007 
     66 C          33.9794    2.9407   -5.2627 C.2       11 UNK         0.5703 
     67 N          32.9049    3.7135   -5.1488 N.am      11 UNK        -0.7361 
     68 O          34.8492    2.9693   -4.3950 O.2       11 UNK        -0.4986 
     69 C69        34.2728    0.5200   -6.1313 C.3       12 UNK        -0.0947 
     70 S70        32.7192   -0.2156   -5.5252 S.3       12 UNK        -0.2240 
     71 C71        33.0894   -1.9857   -5.7184 C.3       12 UNK         0.0194 
     72 H72        26.0016   -6.6478    0.3897 H         1 UNK         0.0906 
     73 H73        27.7256   -6.7765    0.0327 H         1 UNK         0.0906 
     74 H74        27.1812   -5.8542    1.4345 H         1 UNK         0.0906 
     75 H75        27.2565   -3.6920    1.0986 H         1 UNK         0.3140 
     76 H76        27.3830   -1.6917    0.3069 H         1 UNK         0.1085 
     77 H77        27.6965   -2.8545   -2.5065 H         1 UNK         0.0836 
     78 H78        27.6377   -1.1495   -2.1916 H         1 UNK         0.0836 
     79 H79        31.1596   -3.9123   -1.3216 H         1 UNK         0.0731 
     80 H80        29.5292   -4.4399   -1.6337 H         1 UNK         0.0731 
     81 H81        32.1007   -2.1489   -3.1874 H         1 UNK         0.1312 
     82 H82        31.6137   -3.8350   -7.1019 H         1 UNK         0.1406 
     83 H83        29.1894   -5.2238   -3.8472 H         1 UNK         0.1631 
     84 H84        29.1131   -6.3997   -5.9076 H         1 UNK         0.0717 
     85 H85        30.5232   -6.2837   -6.9253 H         1 UNK         0.0717 
     86 H86        26.5026   -5.0263   -6.8817 H         1 UNK         0.0934 
     87 H87        27.5922   -4.1366   -5.8579 H         1 UNK         0.0934 
     88 H88        26.5985   -3.1645   -8.5804 H         1 UNK         0.0739 
     89 H89        24.7852   -2.3542   -7.6882 H         1 UNK         0.3093 
     90 H90        23.3927   -1.2888   -6.3905 H         1 UNK         0.0818 
     91 H91        21.8750   -2.2877   -4.6835 H         1 UNK         0.0819 
     92 H92        22.7746   -3.5573   -5.5001 H         1 UNK         0.0819 
     93 H93        23.2459   -3.0543   -3.8815 H         1 UNK         0.0819 
     94 H94        23.3538   -0.5403   -3.6894 H         1 UNK         0.3041 
     95 H95        25.6573    2.1249   -3.6430 H         1 UNK         0.0784 
     96 H96        23.7494    3.2028   -4.7824 H         1 UNK         0.0793 
     97 H97        22.6044    2.3220   -3.7850 H         1 UNK         0.0793 
     98 H98        23.6821    3.5116   -3.0547 H         1 UNK         0.0793 
     99 H99        25.4630    1.1767   -1.6866 H         1 UNK         0.3024 
    100 H100       23.9584    0.8396    0.4319 H         1 UNK         0.1171 
    101 H101       22.5385   -1.8032   -0.1967 H         1 UNK         0.0786 
    102 H102       21.7995   -0.3407    0.4325 H         1 UNK         0.0786 
    103 H103       22.9501   -1.2278    1.4182 H         1 UNK         0.0786 
    104 H104       25.8567   -0.2974    0.4929 H         1 UNK         0.2977 
    105 H105       27.5106   -1.5472   -5.5226 H         1 UNK         0.3127 
    106 H106       30.0433   -0.6792   -6.2884 H         1 UNK         0.0770 
    107 H107       29.3309   -0.6860   -3.9550 H         1 UNK         0.0814 
    108 H108       28.1025    0.5470   -4.2601 H         1 UNK         0.0814 
    109 H109       29.8150    0.9471   -4.3683 H         1 UNK         0.0814 
    110 H110       26.9423    1.0857   -6.7139 H         1 UNK         0.2983 
    111 H111       28.1448    3.4517   -7.8172 H         1 UNK         0.0947 
    112 H112       25.7980    4.0073   -8.4531 H         1 UNK         0.0806 
    113 H113       25.8812    3.4456   -6.7907 H         1 UNK         0.0806 
    114 H114       25.2844    2.3726   -8.0550 H         1 UNK         0.0806 
    115 H115       27.2755    0.3553   -9.2364 H         1 UNK         0.3000 
    116 H116       27.3899    1.3062  -12.0167 H         1 UNK         0.0850 
    117 H117       27.0449   -1.0823  -12.5740 H         1 UNK         0.0810 
    118 H118       25.8408   -0.5485  -11.4130 H         1 UNK         0.0810 
    119 H119       27.2001   -1.5399  -10.8861 H         1 UNK         0.0810 
    120 H120       29.3867   -0.6028   -9.7362 H         1 UNK         0.3040 
    121 H121       31.6528   -0.9540  -11.4431 H         1 UNK         0.0766 
    122 H122       32.7916   -1.5617   -9.2956 H         1 UNK         0.0812 
    123 H123       31.2208   -2.3417   -9.4174 H         1 UNK         0.0812 
    124 H124       31.4275   -0.9337   -8.3804 H         1 UNK         0.0812 
    125 H125       30.6337    1.6830   -9.3710 H         1 UNK         0.3205 
    126 H126       31.2475    3.7565   -9.0147 H         1 UNK         0.0754 
    127 H127       32.6392    5.0339  -10.5889 H         1 UNK         0.0769 
    128 H128       31.5415    4.0043  -11.4936 H         1 UNK         0.0769 
    129 H129       33.2411    3.5615  -11.3340 H         1 UNK         0.0769 
    130 H130       32.3272    1.6444   -7.5184 H         1 UNK         0.2981 
    131 H131       35.1210    2.3006   -6.9215 H         1 UNK         0.0541 
    132 H132       32.1834    3.6892   -5.8508 H         1 UNK         0.3459 
    133 H133       32.8093    4.3109   -4.3431 H         1 UNK         0.3459 
    134 H134       35.0483    0.3695   -5.3781 H         1 UNK         0.0612 
    135 H135       34.5981   -0.0410   -7.0089 H         1 UNK         0.0612 
    136 H136       33.2959   -2.1916   -6.7695 H         1 UNK         0.0624 
    137 H137       34.0013   -2.2223   -5.1685 H         1 UNK         0.0624 
@<TRIPOS>BOND
     1    1    2 1    
     2    1   72 1    
     3    1   73 1    
     4    1   74 1    
     5    2    3 2    
     6    2    4 am   BACKBONE|DICT|INTERRES
     7    4    5 1    
     8    4   75 1    
     9    5    6 1    
    10    5   35 1    
    11    5   76 1    
    12    6    7 1    
    13    6   77 1    
    14    6   78 1    
    15    7    8 1    
    16    8    9 1    
    17    8   79 1    
    18    8   80 1    
    19    9   10 ar   
    20    9   14 ar   
    21   10   11 ar   
    22   10   81 1    
    23   11   12 ar   
    24   11   71 1    
    25   12   13 ar   
    26   12   82 1    
    27   13   14 ar   
    28   13   15 1    
    29   14   83 1    
    30   15   16 1    
    31   15   84 1    
    32   15   85 1    
    33   16   17 1    
    34   17   18 1    
    35   17   86 1    
    36   17   87 1    
    37   18   19 1    
    38   18   37 1    
    39   18   88 1    
    40   19   20 am   BACKBONE|DICT|INTERRES
    41   19   89 1    
    42   20   21 2    
    43   20   22 1    
    44   22   23 1    
    45   22   24 1    
    46   22   90 1    
    47   23   91 1    
    48   23   92 1    
    49   23   93 1    
    50   24   25 am   BACKBONE|DICT|INTERRES
    51   24   94 1    
    52   25   26 2    
    53   25   27 1    
    54   27   28 1    
    55   27   29 1    
    56   27   95 1    
    57   28   96 1    
    58   28   97 1    
    59   28   98 1    
    60   29   30 am   BACKBONE|DICT|INTERRES
    61   29   99 1    
    62   30   31 2    
    63   30   32 1    
    64   32   33 1    
    65   32   34 1    
    66   32  100 1    
    67   33  101 1    
    68   33  102 1    
    69   33  103 1    
    70   34   35 am   BACKBONE|DICT|INTERRES
    71   34  104 1    
    72   35   36 2    
    73   37   38 2    
    74   37   39 am   BACKBONE|DICT|INTERRES
    75   39   40 1    
    76   39  105 1    
    77   40   41 1    
    78   40   42 1    
    79   40  106 1    
    80   41  107 1    
    81   41  108 1    
    82   41  109 1    
    83   42   43 2    
    84   42   44 am   BACKBONE|DICT|INTERRES
    85   44   45 1    
    86   44  110 1    
    87   45   46 1    
    88   45   47 1    
    89   45  111 1    
    90   46  112 1    
    91   46  113 1    
    92   46  114 1    
    93   47   48 2    
    94   47   49 am   BACKBONE|DICT|INTERRES
    95   49   50 1    
    96   49  115 1    
    97   50   51 1    
    98   50   52 1    
    99   50  116 1    
   100   51  117 1    
   101   51  118 1    
   102   51  119 1    
   103   52   53 2    
   104   52   54 am   BACKBONE|DICT|INTERRES
   105   54   55 1    
   106   54  120 1    
   107   55   56 1    
   108   55   57 1    
   109   55  121 1    
   110   56  122 1    
   111   56  123 1    
   112   56  124 1    
   113   57   58 2    
   114   57   59 am   BACKBONE|DICT|INTERRES
   115   59   60 1    
   116   59  125 1    
   117   60   61 1    
   118   60   62 1    
   119   60  126 1    
   120   61  127 1    
   121   61  128 1    
   122   61  129 1    
   123   62   63 2    
   124   62   64 am   BACKBONE|DICT|INTERRES
   125   64   65 1    
   126   64  130 1    
   127   65   66 1    
   128   65   69 1    
   129   65  131 1    
   130   66   67 am   BACKBONE|DICT|INTERRES
   131   66   68 2    
   132   67  132 1    
   133   67  133 1    
   134   69   70 1    
   135   69  134 1    
   136   69  135 1    
   137   70   71 1    
   138   71  136 1    
   139   71  137 1    
@<TRIPOS>SUBSTRUCTURE
     1 UNK         1 GROUP             0       ****    0 ROOT    
