@<TRIPOS>MOLECULE
3R137
137   139    1
SMALL
USER_CHARGES


@<TRIPOS>ATOM
      1 CA         31.9916    0.8489   -1.8254 C.3       0 UNK        -0.2020 
      2 C          30.8259   -0.0083   -1.3566 C.2       0 UNK         0.4855 
      3 O          30.2647    0.2545   -0.2922 O.2       0 UNK        -0.5197 
      4 N          30.4635   -1.0272   -2.1490 N.am      1 UNK        -0.4892 
      5 CA         29.3141   -1.9200   -1.9467 C.3       1 UNK         0.0835 
      6 C6         29.4420   -2.7572   -0.6374 C.3       12 UNK        -0.0855 
      7 S7         28.5835   -4.3681   -0.7072 S.3       12 UNK        -0.2931 
      8 C8         29.9271   -5.4855   -1.2315 C.3       12 UNK         0.0378 
      9 C9         30.3931   -5.1605   -2.6423 C.ar      12 UNK        -0.0802 
     10 C10        31.6367   -4.5584   -2.8614 C.ar      12 UNK        -0.0944 
     11 C11        32.0255   -4.1930   -4.1537 C.ar      12 UNK        -0.0787 
     12 C12        31.1668   -4.4382   -5.2275 C.ar      12 UNK        -0.0862 
     13 C13        29.9222   -5.0367   -5.0204 C.ar      12 UNK        -0.0733 
     14 C14        29.5505   -5.4168   -3.7278 C.ar      12 UNK        -0.0832 
     15 C15        28.9672   -5.2351   -6.1894 C.3       12 UNK         0.0240 
     16 S16        27.3807   -4.3763   -5.9306 S.3       12 UNK        -0.2522 
     17 C17        27.8954   -2.6332   -5.7323 C.3       12 UNK        -0.0967 
     18 CA         27.2688   -1.7106   -6.8007 C.3       5 UNK         0.0660 
     19 N          25.8069   -1.7960   -6.8087 N.am      5 UNK        -0.4015 
     20 C          25.0279   -1.3363   -7.7959 C.2       4 UNK         0.4946 
     21 O          25.4614   -0.7922   -8.8099 O.2       4 UNK        -0.5353 
     22 CA         23.5070   -1.4632   -7.6103 C.3       4 UNK         0.0277 
     23 CB         23.0053   -2.7877   -8.2063 C.3       4 UNK        -0.1981 
     24 N          23.0619   -1.3542   -6.2184 N.am      4 UNK        -0.4209 
     25 C          23.3005   -0.3179   -5.4019 C.2       3 UNK         0.4942 
     26 O          23.9561    0.6721   -5.7313 O.2       3 UNK        -0.5208 
     27 CA         22.7223   -0.3944   -3.9766 C.3       3 UNK         0.0250 
     28 CB         21.7823   -1.5994   -3.7382 C.3       3 UNK        -0.1990 
     29 N          23.7585   -0.3589   -2.9376 N.am      3 UNK        -0.4232 
     30 C          24.8098   -1.1820   -2.8008 C.2       2 UNK         0.4993 
     31 O          25.1305   -2.0459   -3.6219 O.2       2 UNK        -0.5286 
     32 CA         25.5757   -1.0450   -1.4716 C.3       2 UNK         0.0209 
     33 CB         24.7690   -1.6768   -0.3234 C.3       2 UNK        -0.1931 
     34 N          26.9007   -1.6668   -1.4929 N.am      2 UNK        -0.4546 
     35 C          27.9759   -1.1551   -2.1005 C.2       1 UNK         0.5154 
     36 O          27.9369   -0.1226   -2.7719 O.2       1 UNK        -0.5181 
     37 C          27.7578   -0.2565   -6.6346 C.2       5 UNK         0.5014 
     38 O          28.7808    0.1017   -7.2227 O.2       5 UNK        -0.5248 
     39 N          27.0107    0.5628   -5.8777 N.am      6 UNK        -0.4434 
     40 CA         27.2548    1.9990   -5.7348 C.3       6 UNK         0.0363 
     41 CB         26.5409    2.5498   -4.4886 C.3       6 UNK        -0.1936 
     42 C          26.8102    2.7653   -6.9869 C.2       6 UNK         0.5081 
     43 O          27.5303    3.6589   -7.4288 O.2       6 UNK        -0.5248 
     44 N          25.6561    2.3838   -7.5555 N.am      7 UNK        -0.4718 
     45 CA         25.1096    2.9531   -8.7926 C.3       7 UNK         0.0273 
     46 CB         23.6930    2.4093   -9.0335 C.3       7 UNK        -0.1935 
     47 C          26.0092    2.7009  -10.0158 C.2       7 UNK         0.5018 
     48 O          26.2140    3.6142  -10.8159 O.2       7 UNK        -0.5186 
     49 N          26.5590    1.4825  -10.1161 N.am      8 UNK        -0.4240 
     50 CA         27.5541    1.0931  -11.1190 C.3       8 UNK         0.0235 
     51 CB         27.6171   -0.4420  -11.1890 C.3       8 UNK        -0.2000 
     52 C          28.9589    1.6632  -10.8462 C.2       8 UNK         0.4941 
     53 O          29.7883    1.6463  -11.7564 O.2       8 UNK        -0.5273 
     54 N          29.2046    2.1284   -9.6106 N.am      9 UNK        -0.4262 
     55 CA         30.4786    2.6119   -9.0667 C.3       9 UNK         0.0264 
     56 CB         30.8961    3.9378   -9.7369 C.3       9 UNK        -0.1955 
     57 C          31.5724    1.5287   -9.1213 C.2       9 UNK         0.5031 
     58 O          32.6711    1.7787   -9.6214 O.2       9 UNK        -0.5390 
     59 N          31.2347    0.3317   -8.6205 N.am      10 UNK        -0.4204 
     60 CA         32.0750   -0.8687   -8.6735 C.3       10 UNK         0.0237 
     61 CB         31.2392   -2.0840   -8.2422 C.3       10 UNK        -0.1985 
     62 C          33.3625   -0.7723   -7.8349 C.2       10 UNK         0.4970 
     63 O          34.3768   -1.3540   -8.2218 O.2       10 UNK        -0.4914 
     64 N          33.2978   -0.0455   -6.7150 N.am      11 UNK        -0.4285 
     65 CA         34.4059    0.1711   -5.7714 C.3       11 UNK         0.1007 
     66 C          34.2741    1.4952   -4.9636 C.2       11 UNK         0.5703 
     67 N          33.4262    2.4356   -5.3667 N.am      11 UNK        -0.7361 
     68 O          34.9620    1.6899   -3.9645 O.2       11 UNK        -0.4986 
     69 C69        34.7063   -1.0789   -4.8924 C.3       12 UNK        -0.0947 
     70 S70        33.2354   -1.7299   -4.0296 S.3       12 UNK        -0.2240 
     71 C71        33.3577   -3.5053   -4.3962 C.3       12 UNK         0.0194 
     72 H72        32.9349    0.4340   -1.4711 H         1 UNK         0.0906 
     73 H73        31.8990    1.8648   -1.4419 H         1 UNK         0.0906 
     74 H74        32.0266    0.9071   -2.9129 H         1 UNK         0.0906 
     75 H75        30.9820   -1.1855   -3.0030 H         1 UNK         0.3140 
     76 H76        29.3440   -2.6048   -2.7943 H         1 UNK         0.1085 
     77 H77        29.0783   -2.1950    0.2249 H         1 UNK         0.0836 
     78 H78        30.4940   -2.9530   -0.4235 H         1 UNK         0.0836 
     79 H79        30.7526   -5.4258   -0.5204 H         1 UNK         0.0731 
     80 H80        29.5671   -6.5148   -1.1986 H         1 UNK         0.0731 
     81 H81        32.2906   -4.3461   -2.0264 H         1 UNK         0.1312 
     82 H82        31.4636   -4.1466   -6.2243 H         1 UNK         0.1406 
     83 H83        28.5809   -5.8664   -3.5595 H         1 UNK         0.1631 
     84 H84        28.7771   -6.3014   -6.3182 H         1 UNK         0.0717 
     85 H85        29.4092   -4.8835   -7.1232 H         1 UNK         0.0717 
     86 H86        27.5995   -2.3137   -4.7330 H         1 UNK         0.0934 
     87 H87        28.9833   -2.5608   -5.7634 H         1 UNK         0.0934 
     88 H88        27.6206   -2.0501   -7.7777 H         1 UNK         0.0739 
     89 H89        25.3784   -2.2092   -5.9896 H         1 UNK         0.3093 
     90 H90        23.0412   -0.6451   -8.1616 H         1 UNK         0.0818 
     91 H91        23.3041   -2.8822   -9.2515 H         1 UNK         0.0819 
     92 H92        23.4088   -3.6498   -7.6734 H         1 UNK         0.0819 
     93 H93        21.9174   -2.8514   -8.1765 H         1 UNK         0.0819 
     94 H94        22.5280   -2.1291   -5.8523 H         1 UNK         0.3041 
     95 H95        22.1294    0.5128   -3.8506 H         1 UNK         0.0784 
     96 H96        20.9554   -1.6081   -4.4499 H         1 UNK         0.0793 
     97 H97        22.3055   -2.5536   -3.8154 H         1 UNK         0.0793 
     98 H98        21.3383   -1.5535   -2.7435 H         1 UNK         0.0793 
     99 H99        23.6110    0.3371   -2.2200 H         1 UNK         0.3024 
    100 H100       25.7068    0.0202   -1.2655 H         1 UNK         0.1171 
    101 H101       23.7859   -1.2146   -0.2250 H         1 UNK         0.0786 
    102 H102       24.6112   -2.7444   -0.4838 H         1 UNK         0.0786 
    103 H103       25.2769   -1.5535    0.6334 H         1 UNK         0.0786 
    104 H104       27.0003   -2.5549   -1.0188 H         1 UNK         0.2977 
    105 H105       26.1578    0.2082   -5.4648 H         1 UNK         0.3127 
    106 H106       28.3280    2.1557   -5.6051 H         1 UNK         0.0770 
    107 H107       25.4605    2.4186   -4.5403 H         1 UNK         0.0814 
    108 H108       26.7308    3.6179   -4.3759 H         1 UNK         0.0814 
    109 H109       26.8926    2.0671   -3.5786 H         1 UNK         0.0814 
    110 H110       25.1048    1.6685   -7.0908 H         1 UNK         0.2983 
    111 H111       25.0399    4.0341   -8.6521 H         1 UNK         0.0947 
    112 H112       23.7016    1.3392   -9.2381 H         1 UNK         0.0806 
    113 H113       23.2310    2.8988   -9.8919 H         1 UNK         0.0806 
    114 H114       23.0464    2.5829   -8.1730 H         1 UNK         0.0806 
    115 H115       26.2617    0.7561   -9.4665 H         1 UNK         0.3000 
    116 H116       27.2294    1.4696  -12.0914 H         1 UNK         0.0850 
    117 H117       28.3195   -0.7722  -11.9555 H         1 UNK         0.0810 
    118 H118       26.6445   -0.8684  -11.4353 H         1 UNK         0.0810 
    119 H119       27.9409   -0.8739  -10.2408 H         1 UNK         0.0810 
    120 H120       28.4426    2.0998   -8.9462 H         1 UNK         0.3040 
    121 H121       30.3007    2.8183   -8.0101 H         1 UNK         0.0766 
    122 H122       31.1231    3.8052  -10.7951 H         1 UNK         0.0812 
    123 H123       31.7874    4.3505   -9.2628 H         1 UNK         0.0812 
    124 H124       30.1082    4.6865   -9.6537 H         1 UNK         0.0812 
    125 H125       30.3116    0.2284   -8.1974 H         1 UNK         0.3205 
    126 H126       32.3741   -1.0135   -9.7138 H         1 UNK         0.0754 
    127 H127       31.8203   -3.0036   -8.3222 H         1 UNK         0.0769 
    128 H128       30.3561   -2.2032   -8.8705 H         1 UNK         0.0769 
    129 H129       30.9044   -1.9907   -7.2087 H         1 UNK         0.0769 
    130 H130       32.4154    0.3677   -6.4541 H         1 UNK         0.2981 
    131 H131       35.2978    0.3444   -6.3762 H         1 UNK         0.0541 
    132 H132       33.3634    3.2883   -4.8331 H         1 UNK         0.3459 
    133 H133       32.9227    2.3512   -6.2329 H         1 UNK         0.3459 
    134 H134       35.4801   -0.8684   -4.1525 H         1 UNK         0.0612 
    135 H135       35.1258   -1.8615   -5.5253 H         1 UNK         0.0612 
    136 H136       34.1344   -3.9524   -3.7742 H         1 UNK         0.0624 
    137 H137       33.6653   -3.6484   -5.4334 H         1 UNK         0.0624 
@<TRIPOS>BOND
     1    1    2 1    
     2    1   72 1    
     3    1   73 1    
     4    1   74 1    
     5    2    3 2    
     6    2    4 am   BACKBONE|DICT|INTERRES
     7    4    5 1    
     8    4   75 1    
     9    5    6 1    
    10    5   35 1    
    11    5   76 1    
    12    6    7 1    
    13    6   77 1    
    14    6   78 1    
    15    7    8 1    
    16    8    9 1    
    17    8   79 1    
    18    8   80 1    
    19    9   10 ar   
    20    9   14 ar   
    21   10   11 ar   
    22   10   81 1    
    23   11   12 ar   
    24   11   71 1    
    25   12   13 ar   
    26   12   82 1    
    27   13   14 ar   
    28   13   15 1    
    29   14   83 1    
    30   15   16 1    
    31   15   84 1    
    32   15   85 1    
    33   16   17 1    
    34   17   18 1    
    35   17   86 1    
    36   17   87 1    
    37   18   19 1    
    38   18   37 1    
    39   18   88 1    
    40   19   20 am   BACKBONE|DICT|INTERRES
    41   19   89 1    
    42   20   21 2    
    43   20   22 1    
    44   22   23 1    
    45   22   24 1    
    46   22   90 1    
    47   23   91 1    
    48   23   92 1    
    49   23   93 1    
    50   24   25 am   BACKBONE|DICT|INTERRES
    51   24   94 1    
    52   25   26 2    
    53   25   27 1    
    54   27   28 1    
    55   27   29 1    
    56   27   95 1    
    57   28   96 1    
    58   28   97 1    
    59   28   98 1    
    60   29   30 am   BACKBONE|DICT|INTERRES
    61   29   99 1    
    62   30   31 2    
    63   30   32 1    
    64   32   33 1    
    65   32   34 1    
    66   32  100 1    
    67   33  101 1    
    68   33  102 1    
    69   33  103 1    
    70   34   35 am   BACKBONE|DICT|INTERRES
    71   34  104 1    
    72   35   36 2    
    73   37   38 2    
    74   37   39 am   BACKBONE|DICT|INTERRES
    75   39   40 1    
    76   39  105 1    
    77   40   41 1    
    78   40   42 1    
    79   40  106 1    
    80   41  107 1    
    81   41  108 1    
    82   41  109 1    
    83   42   43 2    
    84   42   44 am   BACKBONE|DICT|INTERRES
    85   44   45 1    
    86   44  110 1    
    87   45   46 1    
    88   45   47 1    
    89   45  111 1    
    90   46  112 1    
    91   46  113 1    
    92   46  114 1    
    93   47   48 2    
    94   47   49 am   BACKBONE|DICT|INTERRES
    95   49   50 1    
    96   49  115 1    
    97   50   51 1    
    98   50   52 1    
    99   50  116 1    
   100   51  117 1    
   101   51  118 1    
   102   51  119 1    
   103   52   53 2    
   104   52   54 am   BACKBONE|DICT|INTERRES
   105   54   55 1    
   106   54  120 1    
   107   55   56 1    
   108   55   57 1    
   109   55  121 1    
   110   56  122 1    
   111   56  123 1    
   112   56  124 1    
   113   57   58 2    
   114   57   59 am   BACKBONE|DICT|INTERRES
   115   59   60 1    
   116   59  125 1    
   117   60   61 1    
   118   60   62 1    
   119   60  126 1    
   120   61  127 1    
   121   61  128 1    
   122   61  129 1    
   123   62   63 2    
   124   62   64 am   BACKBONE|DICT|INTERRES
   125   64   65 1    
   126   64  130 1    
   127   65   66 1    
   128   65   69 1    
   129   65  131 1    
   130   66   67 am   BACKBONE|DICT|INTERRES
   131   66   68 2    
   132   67  132 1    
   133   67  133 1    
   134   69   70 1    
   135   69  134 1    
   136   69  135 1    
   137   70   71 1    
   138   71  136 1    
   139   71  137 1    
@<TRIPOS>SUBSTRUCTURE
     1 UNK         1 GROUP             0       ****    0 ROOT    
