@<TRIPOS>MOLECULE
3R137
137   139    1
SMALL
USER_CHARGES


@<TRIPOS>ATOM
      1 CA         26.8562   -6.9697   -6.8172 C.3       0 UNK        -0.2020 
      2 C          26.9338   -6.8717   -5.3011 C.2       0 UNK         0.4855 
      3 O          27.2908   -7.8482   -4.6415 O.2       0 UNK        -0.5197 
      4 N          26.5959   -5.7043   -4.7474 N.am      1 UNK        -0.4892 
      5 CA         26.5850   -5.3961   -3.3186 C.3       1 UNK         0.0835 
      6 C6         28.0040   -5.3385   -2.6827 C.3       12 UNK        -0.0855 
      7 S7         29.0650   -3.9945   -3.3128 S.3       12 UNK        -0.2931 
      8 C8         30.3947   -4.0383   -2.0726 C.3       12 UNK         0.0378 
      9 C9         31.3005   -2.8239   -2.1908 C.ar      12 UNK        -0.0802 
     10 C10        32.6115   -2.9483   -2.6605 C.ar      12 UNK        -0.0944 
     11 C11        33.4401   -1.8248   -2.7539 C.ar      12 UNK        -0.0787 
     12 C12        32.9412   -0.5692   -2.3929 C.ar      12 UNK        -0.0862 
     13 C13        31.6311   -0.4345   -1.9237 C.ar      12 UNK        -0.0733 
     14 C14        30.8234   -1.5684   -1.8081 C.ar      12 UNK        -0.0832 
     15 C15        31.0945    0.9329   -1.5287 C.3       12 UNK         0.0240 
     16 S16        30.4884    1.8665   -2.9690 S.3       12 UNK        -0.2522 
     17 C17        28.9053    1.0315   -3.3310 C.3       12 UNK        -0.0967 
     18 CA         28.5526    1.0540   -4.8379 C.3       5 UNK         0.0660 
     19 N          27.5701    0.0225   -5.1780 N.am      5 UNK        -0.4015 
     20 C          27.2907   -0.3708   -6.4302 C.2       4 UNK         0.4946 
     21 O          27.9064    0.0187   -7.4223 O.2       4 UNK        -0.5353 
     22 CA         26.1149   -1.3442   -6.6314 C.3       4 UNK         0.0277 
     23 CB         26.6300   -2.7891   -6.6904 C.3       4 UNK        -0.1981 
     24 N          25.0748   -1.2253   -5.6052 N.am      4 UNK        -0.4209 
     25 C          24.3792   -0.1025   -5.3640 C.2       3 UNK         0.4942 
     26 O          24.4705    0.9101   -6.0571 O.2       3 UNK        -0.5208 
     27 CA         23.4805   -0.0578   -4.1155 C.3       3 UNK         0.0250 
     28 CB         22.0052   -0.2189   -4.5142 C.3       3 UNK        -0.1990 
     29 N          23.8093   -1.0415   -3.0796 N.am      3 UNK        -0.4232 
     30 C          24.9915   -1.1966   -2.4644 C.2       2 UNK         0.4993 
     31 O          25.9898   -0.5152   -2.7103 O.2       2 UNK        -0.5286 
     32 CA         25.0879   -2.3414   -1.4356 C.3       2 UNK         0.0209 
     33 CB         23.7168   -2.8142   -0.9014 C.3       2 UNK        -0.1931 
     34 N          25.8488   -3.4993   -1.9269 N.am      2 UNK        -0.4546 
     35 C          25.7188   -4.1359   -3.1024 C.2       1 UNK         0.5154 
     36 O          24.9501   -3.7739   -4.0004 O.2       1 UNK        -0.5181 
     37 C          28.0617    2.4455   -5.2857 C.2       5 UNK         0.5014 
     38 O          28.8037    3.1717   -5.9473 O.2       5 UNK        -0.5248 
     39 N          26.8047    2.7765   -4.9496 N.am      6 UNK        -0.4434 
     40 CA         26.1470    4.0399   -5.3014 C.3       6 UNK         0.0363 
     41 CB         24.8046    4.1464   -4.5598 C.3       6 UNK        -0.1936 
     42 C          25.9472    4.2099   -6.8169 C.2       6 UNK         0.5081 
     43 O          26.1086    5.3162   -7.3319 O.2       6 UNK        -0.5248 
     44 N          25.6373    3.1042   -7.5058 N.am      7 UNK        -0.4718 
     45 CA         25.5373    3.0221   -8.9648 C.3       7 UNK         0.0273 
     46 CB         24.7752    1.7376   -9.3313 C.3       7 UNK        -0.1935 
     47 C          26.9003    3.0517   -9.6844 C.2       7 UNK         0.5018 
     48 O          26.9177    3.2017  -10.9067 O.2       7 UNK        -0.5186 
     49 N          28.0011    2.8775   -8.9345 N.am      8 UNK        -0.4240 
     50 CA         29.3880    2.7355   -9.3970 C.3       8 UNK         0.0235 
     51 CB         29.8976    4.0431  -10.0391 C.3       8 UNK        -0.2000 
     52 C          29.6017    1.4971  -10.2918 C.2       8 UNK         0.4941 
     53 O          30.4490    1.5185  -11.1865 O.2       8 UNK        -0.5273 
     54 N          28.8288    0.4368  -10.0265 N.am      9 UNK        -0.4262 
     55 CA         28.9509   -0.8759  -10.6553 C.3       9 UNK         0.0264 
     56 CB         27.5718   -1.5549  -10.6871 C.3       9 UNK        -0.1955 
     57 C          29.9710   -1.7436   -9.9039 C.2       9 UNK         0.5031 
     58 O          30.7154   -2.4875  -10.5440 O.2       9 UNK        -0.5390 
     59 N          30.0023   -1.6161   -8.5708 N.am      10 UNK        -0.4204 
     60 CA         31.0120   -2.2085   -7.7009 C.3       10 UNK         0.0237 
     61 CB         30.3407   -2.7766   -6.4393 C.3       10 UNK        -0.1985 
     62 C          32.0216   -1.1188   -7.3278 C.2       10 UNK         0.4970 
     63 O          31.6130   -0.0610   -6.8441 O.2       10 UNK        -0.4914 
     64 N          33.3094   -1.4127   -7.5422 N.am      11 UNK        -0.4285 
     65 CA         34.4615   -0.5690   -7.1831 C.3       11 UNK         0.1007 
     66 C          34.4323    0.8390   -7.8563 C.2       11 UNK         0.5703 
     67 N          34.9580    1.8809   -7.2185 N.am      11 UNK        -0.7361 
     68 O          33.9921    0.9817   -8.9985 O.2       11 UNK        -0.4986 
     69 C69        34.7174   -0.5592   -5.6465 C.3       12 UNK        -0.0947 
     70 S70        35.0149   -2.2410   -5.0039 S.3       12 UNK        -0.2240 
     71 C71        34.8838   -1.9760   -3.2111 C.3       12 UNK         0.0194 
     72 H72        27.8316   -7.2350   -7.2256 H         1 UNK         0.0906 
     73 H73        26.1436   -7.7417   -7.1074 H         1 UNK         0.0906 
     74 H74        26.5439   -6.0301   -7.2727 H         1 UNK         0.0906 
     75 H75        26.2237   -4.9529   -5.3135 H         1 UNK         0.3140 
     76 H76        26.0378   -6.2031   -2.8265 H         1 UNK         0.1085 
     77 H77        28.5252   -6.2815   -2.8523 H         1 UNK         0.0836 
     78 H78        27.9251   -5.2545   -1.5979 H         1 UNK         0.0836 
     79 H79        30.9628   -4.9617   -2.1892 H         1 UNK         0.0731 
     80 H80        29.9651   -4.0624   -1.0709 H         1 UNK         0.0731 
     81 H81        32.9930   -3.9188   -2.9469 H         1 UNK         0.1312 
     82 H82        33.5730    0.3050   -2.4714 H         1 UNK         0.1406 
     83 H83        29.8129   -1.4775   -1.4336 H         1 UNK         0.1631 
     84 H84        31.8855    1.5084   -1.0455 H         1 UNK         0.0717 
     85 H85        30.2954    0.8388   -0.7916 H         1 UNK         0.0717 
     86 H86        28.9765   -0.0044   -3.0045 H         1 UNK         0.0934 
     87 H87        28.1150    1.4749   -2.7219 H         1 UNK         0.0934 
     88 H88        29.4600    0.8253   -5.4020 H         1 UNK         0.0739 
     89 H89        27.0105   -0.3363   -4.4093 H         1 UNK         0.3093 
     90 H90        25.6529   -1.1073   -7.5913 H         1 UNK         0.0818 
     91 H91        27.3406   -2.9170   -7.5078 H         1 UNK         0.0819 
     92 H92        27.1429   -3.0669   -5.7691 H         1 UNK         0.0819 
     93 H93        25.8148   -3.4926   -6.8587 H         1 UNK         0.0819 
     94 H94        24.9389   -2.0242   -4.9918 H         1 UNK         0.3041 
     95 H95        23.6080    0.9308   -3.6699 H         1 UNK         0.0784 
     96 H96        21.7198    0.5215   -5.2632 H         1 UNK         0.0793 
     97 H97        21.8076   -1.2043   -4.9384 H         1 UNK         0.0793 
     98 H98        21.3437   -0.0811   -3.6587 H         1 UNK         0.0793 
     99 H99        23.0731   -1.6865   -2.8319 H         1 UNK         0.3024 
    100 H100       25.6468   -1.9319   -0.5922 H         1 UNK         0.1171 
    101 H101       23.8428   -3.5123   -0.0736 H         1 UNK         0.0786 
    102 H102       23.1280   -1.9778   -0.5216 H         1 UNK         0.0786 
    103 H103       23.1267   -3.3217   -1.6654 H         1 UNK         0.0786 
    104 H104       26.5532   -3.8440   -1.2906 H         1 UNK         0.2977 
    105 H105       26.2471    2.1033   -4.4447 H         1 UNK         0.3127 
    106 H106       26.7908    4.8537   -4.9609 H         1 UNK         0.0770 
    107 H107       24.1147    3.3543   -4.8527 H         1 UNK         0.0814 
    108 H108       24.3165    5.0977   -4.7763 H         1 UNK         0.0814 
    109 H109       24.9409    4.0925   -3.4796 H         1 UNK         0.0814 
    110 H110       25.4311    2.2541   -6.9852 H         1 UNK         0.2983 
    111 H111       24.9619    3.8797   -9.3199 H         1 UNK         0.0947 
    112 H112       24.6234    1.6647  -10.4091 H         1 UNK         0.0806 
    113 H113       23.7911    1.7114   -8.8628 H         1 UNK         0.0806 
    114 H114       25.3189    0.8462   -9.0177 H         1 UNK         0.0806 
    115 H115       27.8754    2.7793   -7.9341 H         1 UNK         0.3000 
    116 H116       29.9833    2.5568   -8.4997 H         1 UNK         0.0850 
    117 H117       30.9665    3.9842  -10.2474 H         1 UNK         0.0810 
    118 H118       29.7441    4.8950   -9.3767 H         1 UNK         0.0810 
    119 H119       29.3944    4.2549  -10.9829 H         1 UNK         0.0810 
    120 H120       28.2254    0.4892   -9.2093 H         1 UNK         0.3040 
    121 H121       29.2976   -0.7561  -11.6840 H         1 UNK         0.0766 
    122 H122       26.8570   -0.9681  -11.2645 H         1 UNK         0.0812 
    123 H123       27.1612   -1.6895   -9.6863 H         1 UNK         0.0812 
    124 H124       27.6334   -2.5402  -11.1511 H         1 UNK         0.0812 
    125 H125       29.3786   -0.9424   -8.1324 H         1 UNK         0.3205 
    126 H126       31.5249   -3.0270   -8.2104 H         1 UNK         0.0754 
    127 H127       31.0825   -3.2066   -5.7644 H         1 UNK         0.0769 
    128 H128       29.6325   -3.5672   -6.6856 H         1 UNK         0.0769 
    129 H129       29.8074   -2.0079   -5.8787 H         1 UNK         0.0769 
    130 H130       33.5407   -2.2960   -7.9716 H         1 UNK         0.2981 
    131 H131       35.3217   -1.0559   -7.6435 H         1 UNK         0.0541 
    132 H132       35.3381    1.7885   -6.2871 H         1 UNK         0.3459 
    133 H133       34.9591    2.7802   -7.6731 H         1 UNK         0.3459 
    134 H134       33.8723   -0.1106   -5.1222 H         1 UNK         0.0612 
    135 H135       35.5970    0.0357   -5.3968 H         1 UNK         0.0612 
    136 H136       35.3326   -2.8286   -2.6997 H         1 UNK         0.0624 
    137 H137       35.4775   -1.1053   -2.9282 H         1 UNK         0.0624 
@<TRIPOS>BOND
     1    1    2 1    
     2    1   72 1    
     3    1   73 1    
     4    1   74 1    
     5    2    3 2    
     6    2    4 am   BACKBONE|DICT|INTERRES
     7    4    5 1    
     8    4   75 1    
     9    5    6 1    
    10    5   35 1    
    11    5   76 1    
    12    6    7 1    
    13    6   77 1    
    14    6   78 1    
    15    7    8 1    
    16    8    9 1    
    17    8   79 1    
    18    8   80 1    
    19    9   10 ar   
    20    9   14 ar   
    21   10   11 ar   
    22   10   81 1    
    23   11   12 ar   
    24   11   71 1    
    25   12   13 ar   
    26   12   82 1    
    27   13   14 ar   
    28   13   15 1    
    29   14   83 1    
    30   15   16 1    
    31   15   84 1    
    32   15   85 1    
    33   16   17 1    
    34   17   18 1    
    35   17   86 1    
    36   17   87 1    
    37   18   19 1    
    38   18   37 1    
    39   18   88 1    
    40   19   20 am   BACKBONE|DICT|INTERRES
    41   19   89 1    
    42   20   21 2    
    43   20   22 1    
    44   22   23 1    
    45   22   24 1    
    46   22   90 1    
    47   23   91 1    
    48   23   92 1    
    49   23   93 1    
    50   24   25 am   BACKBONE|DICT|INTERRES
    51   24   94 1    
    52   25   26 2    
    53   25   27 1    
    54   27   28 1    
    55   27   29 1    
    56   27   95 1    
    57   28   96 1    
    58   28   97 1    
    59   28   98 1    
    60   29   30 am   BACKBONE|DICT|INTERRES
    61   29   99 1    
    62   30   31 2    
    63   30   32 1    
    64   32   33 1    
    65   32   34 1    
    66   32  100 1    
    67   33  101 1    
    68   33  102 1    
    69   33  103 1    
    70   34   35 am   BACKBONE|DICT|INTERRES
    71   34  104 1    
    72   35   36 2    
    73   37   38 2    
    74   37   39 am   BACKBONE|DICT|INTERRES
    75   39   40 1    
    76   39  105 1    
    77   40   41 1    
    78   40   42 1    
    79   40  106 1    
    80   41  107 1    
    81   41  108 1    
    82   41  109 1    
    83   42   43 2    
    84   42   44 am   BACKBONE|DICT|INTERRES
    85   44   45 1    
    86   44  110 1    
    87   45   46 1    
    88   45   47 1    
    89   45  111 1    
    90   46  112 1    
    91   46  113 1    
    92   46  114 1    
    93   47   48 2    
    94   47   49 am   BACKBONE|DICT|INTERRES
    95   49   50 1    
    96   49  115 1    
    97   50   51 1    
    98   50   52 1    
    99   50  116 1    
   100   51  117 1    
   101   51  118 1    
   102   51  119 1    
   103   52   53 2    
   104   52   54 am   BACKBONE|DICT|INTERRES
   105   54   55 1    
   106   54  120 1    
   107   55   56 1    
   108   55   57 1    
   109   55  121 1    
   110   56  122 1    
   111   56  123 1    
   112   56  124 1    
   113   57   58 2    
   114   57   59 am   BACKBONE|DICT|INTERRES
   115   59   60 1    
   116   59  125 1    
   117   60   61 1    
   118   60   62 1    
   119   60  126 1    
   120   61  127 1    
   121   61  128 1    
   122   61  129 1    
   123   62   63 2    
   124   62   64 am   BACKBONE|DICT|INTERRES
   125   64   65 1    
   126   64  130 1    
   127   65   66 1    
   128   65   69 1    
   129   65  131 1    
   130   66   67 am   BACKBONE|DICT|INTERRES
   131   66   68 2    
   132   67  132 1    
   133   67  133 1    
   134   69   70 1    
   135   69  134 1    
   136   69  135 1    
   137   70   71 1    
   138   71  136 1    
   139   71  137 1    
@<TRIPOS>SUBSTRUCTURE
     1 UNK         1 GROUP             0       ****    0 ROOT    
