@<TRIPOS>MOLECULE
3R137
137   139    1
SMALL
USER_CHARGES


@<TRIPOS>ATOM
      1 CA         24.3938   -2.4914    2.1166 C.3       0 UNK        -0.2020 
      2 C          25.3473   -1.7947    1.1580 C.2       0 UNK         0.4855 
      3 O          25.5772   -0.5911    1.2868 O.2       0 UNK        -0.5197 
      4 N          25.9067   -2.5383    0.1953 N.am      1 UNK        -0.4892 
      5 CA         26.8290   -2.0390   -0.8287 C.3       1 UNK         0.0835 
      6 C6         27.6800   -3.1779   -1.4456 C.3       12 UNK        -0.0855 
      7 S7         28.9140   -3.8461   -0.2817 S.3       12 UNK        -0.2931 
      8 C8         30.4441   -2.9971   -0.8297 C.3       12 UNK         0.0378 
      9 C9         30.8781   -3.2682   -2.2745 C.ar      12 UNK        -0.0802 
     10 C10        31.7118   -2.3450   -2.9170 C.ar      12 UNK        -0.0944 
     11 C11        32.1211   -2.5444   -4.2398 C.ar      12 UNK        -0.0787 
     12 C12        31.6811   -3.6789   -4.9306 C.ar      12 UNK        -0.0862 
     13 C13        30.8609   -4.6196   -4.2992 C.ar      12 UNK        -0.0733 
     14 C14        30.4794   -4.4161   -2.9704 C.ar      12 UNK        -0.0832 
     15 C15        30.4128   -5.8788   -5.0316 C.3       12 UNK         0.0240 
     16 S16        29.0968   -5.5685   -6.2540 S.3       12 UNK        -0.2522 
     17 C17        27.6971   -4.9964   -5.2242 C.3       12 UNK        -0.0967 
     18 CA         26.8489   -3.8947   -5.9152 C.3       5 UNK         0.0660 
     19 N          25.6122   -3.6020   -5.1937 N.am      5 UNK        -0.4015 
     20 C          24.4886   -4.3237   -5.2629 C.2       4 UNK         0.4946 
     21 O          24.3851   -5.3848   -5.8800 O.2       4 UNK        -0.5353 
     22 CA         23.2590   -3.7464   -4.5398 C.3       4 UNK         0.0277 
     23 CB         23.2511   -4.1683   -3.0611 C.3       4 UNK        -0.1981 
     24 N          23.1899   -2.2853   -4.6308 N.am      4 UNK        -0.4209 
     25 C          22.9965   -1.5848   -5.7569 C.2       3 UNK         0.4942 
     26 O          22.7574   -2.1074   -6.8461 O.2       3 UNK        -0.5208 
     27 CA         23.1156   -0.0496   -5.6855 C.3       3 UNK         0.0250 
     28 CB         21.7280    0.6165   -5.5981 C.3       3 UNK        -0.1990 
     29 N          24.0294    0.4523   -4.6476 N.am      3 UNK        -0.4232 
     30 C          23.8835    0.4175   -3.3155 C.2       2 UNK         0.4993 
     31 O          22.9098   -0.0659   -2.7345 O.2       2 UNK        -0.5286 
     32 CA         25.0549    0.9670   -2.4871 C.3       2 UNK         0.0209 
     33 CB         24.6148    2.1925   -1.6697 C.3       2 UNK        -0.1931 
     34 N          25.6375   -0.0307   -1.5825 N.am      2 UNK        -0.4546 
     35 C          26.0721   -1.2528   -1.9181 C.2       1 UNK         0.5154 
     36 O          25.9323   -1.7503   -3.0387 O.2       1 UNK        -0.5181 
     37 C          27.6411   -2.5974   -6.1573 C.2       5 UNK         0.5014 
     38 O          28.1503   -2.4036   -7.2625 O.2       5 UNK        -0.5248 
     39 N          27.7405   -1.7336   -5.1369 N.am      6 UNK        -0.4434 
     40 CA         28.5562   -0.5260   -5.1843 C.3       6 UNK         0.0363 
     41 CB         28.9234   -0.0701   -3.7634 C.3       6 UNK        -0.1936 
     42 C          27.8590    0.6062   -5.9437 C.2       6 UNK         0.5081 
     43 O          26.6685    0.8565   -5.7340 O.2       6 UNK        -0.5248 
     44 N          28.6513    1.2966   -6.7628 N.am      7 UNK        -0.4718 
     45 CA         28.3208    2.4869   -7.5332 C.3       7 UNK         0.0273 
     46 CB         27.3838    2.1366   -8.7049 C.3       7 UNK        -0.1935 
     47 C          29.6489    3.0521   -8.0465 C.2       7 UNK         0.5018 
     48 O          30.6044    2.2867   -8.2159 O.2       7 UNK        -0.5186 
     49 N          29.6870    4.3606   -8.3279 N.am      8 UNK        -0.4240 
     50 CA         30.8826    5.0787   -8.7935 C.3       8 UNK         0.0235 
     51 CB         30.5700    6.5812   -8.8857 C.3       8 UNK        -0.2000 
     52 C          31.4566    4.5658  -10.1284 C.2       8 UNK         0.4941 
     53 O          32.6641    4.6683  -10.3438 O.2       8 UNK        -0.5273 
     54 N          30.5885    4.0146  -10.9869 N.am      9 UNK        -0.4262 
     55 CA         30.9591    3.3760  -12.2509 C.3       9 UNK         0.0264 
     56 CB         29.7975    3.5435  -13.2456 C.3       9 UNK        -0.1955 
     57 C          31.3181    1.8849  -12.0971 C.2       9 UNK         0.5031 
     58 O          31.8775    1.3160  -13.0360 O.2       9 UNK        -0.5390 
     59 N          30.9714    1.2669  -10.9585 N.am      10 UNK        -0.4204 
     60 CA         31.1732   -0.1589  -10.6955 C.3       10 UNK         0.0237 
     61 CB         29.9595   -0.7264   -9.9379 C.3       10 UNK        -0.1985 
     62 C          32.4675   -0.4046   -9.9113 C.2       10 UNK         0.4970 
     63 O          33.2649   -1.2513  -10.3174 O.2       10 UNK        -0.4914 
     64 N          32.6478    0.3234   -8.8030 N.am      11 UNK        -0.4285 
     65 CA         33.8239    0.2184   -7.9289 C.3       11 UNK         0.1007 
     66 C          35.0741    0.9173   -8.5284 C.2       11 UNK         0.5703 
     67 N          36.2670    0.4918   -8.1340 N.am      11 UNK        -0.7361 
     68 O          34.9800    1.8549   -9.3182 O.2       11 UNK        -0.4986 
     69 C69        33.5234    0.7308   -6.4967 C.3       12 UNK        -0.0947 
     70 S70        32.1639   -0.1861   -5.7000 S.3       12 UNK        -0.2240 
     71 C71        33.0652   -1.5524   -4.9085 C.3       12 UNK         0.0194 
     72 H72        23.4063   -2.0342    2.0608 H         1 UNK         0.0906 
     73 H73        24.2898   -3.5524    1.8902 H         1 UNK         0.0906 
     74 H74        24.7559   -2.3970    3.1399 H         1 UNK         0.0906 
     75 H75        25.6842   -3.5220    0.1372 H         1 UNK         0.3140 
     76 H76        27.5192   -1.3331   -0.3602 H         1 UNK         0.1085 
     77 H77        27.0408   -3.9960   -1.7834 H         1 UNK         0.0836 
     78 H78        28.2033   -2.8300   -2.3364 H         1 UNK         0.0836 
     79 H79        30.3047   -1.9244   -0.6856 H         1 UNK         0.0731 
     80 H80        31.2576   -3.2933   -0.1663 H         1 UNK         0.0731 
     81 H81        32.0451   -1.4634   -2.3863 H         1 UNK         0.1312 
     82 H82        31.9871   -3.8381   -5.9556 H         1 UNK         0.1406 
     83 H83        29.8600   -5.1563   -2.4839 H         1 UNK         0.1631 
     84 H84        30.0683   -6.6364   -4.3258 H         1 UNK         0.0717 
     85 H85        31.2697   -6.3154   -5.5465 H         1 UNK         0.0717 
     86 H86        27.0750   -5.8674   -5.0132 H         1 UNK         0.0934 
     87 H87        28.0521   -4.6450   -4.2560 H         1 UNK         0.0934 
     88 H88        26.5635   -4.2632   -6.9035 H         1 UNK         0.0739 
     89 H89        25.6009   -2.7607   -4.6244 H         1 UNK         0.3093 
     90 H90        22.3675   -4.1551   -5.0201 H         1 UNK         0.0818 
     91 H91        22.3520   -3.8181   -2.5538 H         1 UNK         0.0819 
     92 H92        23.2739   -5.2548   -2.9662 H         1 UNK         0.0819 
     93 H93        24.1138   -3.7759   -2.5217 H         1 UNK         0.0819 
     94 H94        23.3292   -1.7583   -3.7749 H         1 UNK         0.3041 
     95 H95        23.5657    0.2609   -6.6300 H         1 UNK         0.0784 
     96 H96        21.1082    0.3325   -6.4495 H         1 UNK         0.0793 
     97 H97        21.1886    0.3240   -4.6969 H         1 UNK         0.0793 
     98 H98        21.8085    1.7035   -5.6044 H         1 UNK         0.0793 
     99 H99        24.9270    0.7719   -5.0117 H         1 UNK         0.3024 
    100 H100       25.8439    1.2859   -3.1706 H         1 UNK         0.1171 
    101 H101       25.4571    2.6451   -1.1460 H         1 UNK         0.0786 
    102 H102       23.8596    1.9300   -0.9274 H         1 UNK         0.0786 
    103 H103       24.1854    2.9597   -2.3154 H         1 UNK         0.0786 
    104 H104       25.7118    0.2284   -0.6044 H         1 UNK         0.2977 
    105 H105       27.2030   -1.8772   -4.2869 H         1 UNK         0.3127 
    106 H106       29.4772   -0.7881   -5.7041 H         1 UNK         0.0770 
    107 H107       28.0662    0.3351   -3.2292 H         1 UNK         0.0814 
    108 H108       29.6783    0.7163   -3.7974 H         1 UNK         0.0814 
    109 H109       29.3377   -0.8856   -3.1743 H         1 UNK         0.0814 
    110 H110       29.6267    1.0325   -6.8479 H         1 UNK         0.2983 
    111 H111       27.8459    3.2166   -6.8741 H         1 UNK         0.0947 
    112 H112       27.1506    3.0202   -9.3000 H         1 UNK         0.0806 
    113 H113       26.4358    1.7316   -8.3506 H         1 UNK         0.0806 
    114 H114       27.8301    1.3996   -9.3730 H         1 UNK         0.0806 
    115 H115       28.8572    4.9168   -8.1763 H         1 UNK         0.3000 
    116 H116       31.6597    4.9379   -8.0389 H         1 UNK         0.0850 
    117 H117       31.4485    7.1438   -9.2055 H         1 UNK         0.0810 
    118 H118       30.2653    6.9845   -7.9197 H         1 UNK         0.0810 
    119 H119       29.7740    6.7856   -9.6029 H         1 UNK         0.0810 
    120 H120       29.6102    4.0019  -10.7374 H         1 UNK         0.3040 
    121 H121       31.8344    3.8803  -12.6665 H         1 UNK         0.0766 
    122 H122       30.0485    3.1124  -14.2159 H         1 UNK         0.0812 
    123 H123       29.5660    4.5957  -13.4121 H         1 UNK         0.0812 
    124 H124       28.8899    3.0499  -12.8957 H         1 UNK         0.0812 
    125 H125       30.6155    1.8206  -10.1883 H         1 UNK         0.3205 
    126 H126       31.2492   -0.7012  -11.6407 H         1 UNK         0.0754 
    127 H127       30.0824   -1.7936   -9.7477 H         1 UNK         0.0769 
    128 H128       29.0417   -0.6058  -10.5133 H         1 UNK         0.0769 
    129 H129       29.8133   -0.2446   -8.9711 H         1 UNK         0.0769 
    130 H130       31.9592    1.0241   -8.5446 H         1 UNK         0.2981 
    131 H131       34.0695   -0.8424   -7.8474 H         1 UNK         0.0541 
    132 H132       37.0916    0.9396   -8.5023 H         1 UNK         0.3459 
    133 H133       36.3613   -0.2703   -7.4809 H         1 UNK         0.3459 
    134 H134       33.2479    1.7868   -6.5234 H         1 UNK         0.0612 
    135 H135       34.4086    0.6621   -5.8617 H         1 UNK         0.0612 
    136 H136       33.7601   -1.1455   -4.1723 H         1 UNK         0.0624 
    137 H137       33.6728   -2.0636   -5.6566 H         1 UNK         0.0624 
@<TRIPOS>BOND
     1    1    2 1    
     2    1   72 1    
     3    1   73 1    
     4    1   74 1    
     5    2    3 2    
     6    2    4 am   BACKBONE|DICT|INTERRES
     7    4    5 1    
     8    4   75 1    
     9    5    6 1    
    10    5   35 1    
    11    5   76 1    
    12    6    7 1    
    13    6   77 1    
    14    6   78 1    
    15    7    8 1    
    16    8    9 1    
    17    8   79 1    
    18    8   80 1    
    19    9   10 ar   
    20    9   14 ar   
    21   10   11 ar   
    22   10   81 1    
    23   11   12 ar   
    24   11   71 1    
    25   12   13 ar   
    26   12   82 1    
    27   13   14 ar   
    28   13   15 1    
    29   14   83 1    
    30   15   16 1    
    31   15   84 1    
    32   15   85 1    
    33   16   17 1    
    34   17   18 1    
    35   17   86 1    
    36   17   87 1    
    37   18   19 1    
    38   18   37 1    
    39   18   88 1    
    40   19   20 am   BACKBONE|DICT|INTERRES
    41   19   89 1    
    42   20   21 2    
    43   20   22 1    
    44   22   23 1    
    45   22   24 1    
    46   22   90 1    
    47   23   91 1    
    48   23   92 1    
    49   23   93 1    
    50   24   25 am   BACKBONE|DICT|INTERRES
    51   24   94 1    
    52   25   26 2    
    53   25   27 1    
    54   27   28 1    
    55   27   29 1    
    56   27   95 1    
    57   28   96 1    
    58   28   97 1    
    59   28   98 1    
    60   29   30 am   BACKBONE|DICT|INTERRES
    61   29   99 1    
    62   30   31 2    
    63   30   32 1    
    64   32   33 1    
    65   32   34 1    
    66   32  100 1    
    67   33  101 1    
    68   33  102 1    
    69   33  103 1    
    70   34   35 am   BACKBONE|DICT|INTERRES
    71   34  104 1    
    72   35   36 2    
    73   37   38 2    
    74   37   39 am   BACKBONE|DICT|INTERRES
    75   39   40 1    
    76   39  105 1    
    77   40   41 1    
    78   40   42 1    
    79   40  106 1    
    80   41  107 1    
    81   41  108 1    
    82   41  109 1    
    83   42   43 2    
    84   42   44 am   BACKBONE|DICT|INTERRES
    85   44   45 1    
    86   44  110 1    
    87   45   46 1    
    88   45   47 1    
    89   45  111 1    
    90   46  112 1    
    91   46  113 1    
    92   46  114 1    
    93   47   48 2    
    94   47   49 am   BACKBONE|DICT|INTERRES
    95   49   50 1    
    96   49  115 1    
    97   50   51 1    
    98   50   52 1    
    99   50  116 1    
   100   51  117 1    
   101   51  118 1    
   102   51  119 1    
   103   52   53 2    
   104   52   54 am   BACKBONE|DICT|INTERRES
   105   54   55 1    
   106   54  120 1    
   107   55   56 1    
   108   55   57 1    
   109   55  121 1    
   110   56  122 1    
   111   56  123 1    
   112   56  124 1    
   113   57   58 2    
   114   57   59 am   BACKBONE|DICT|INTERRES
   115   59   60 1    
   116   59  125 1    
   117   60   61 1    
   118   60   62 1    
   119   60  126 1    
   120   61  127 1    
   121   61  128 1    
   122   61  129 1    
   123   62   63 2    
   124   62   64 am   BACKBONE|DICT|INTERRES
   125   64   65 1    
   126   64  130 1    
   127   65   66 1    
   128   65   69 1    
   129   65  131 1    
   130   66   67 am   BACKBONE|DICT|INTERRES
   131   66   68 2    
   132   67  132 1    
   133   67  133 1    
   134   69   70 1    
   135   69  134 1    
   136   69  135 1    
   137   70   71 1    
   138   71  136 1    
   139   71  137 1    
@<TRIPOS>SUBSTRUCTURE
     1 UNK         1 GROUP             0       ****    0 ROOT    
