@<TRIPOS>MOLECULE
3R137
137   139    1
SMALL
USER_CHARGES


@<TRIPOS>ATOM
      1 CA         23.9783   -4.2604    1.3671 C.3       0 UNK        -0.2020 
      2 C          25.3651   -3.7736    0.9750 C.2       0 UNK         0.4855 
      3 O          25.6443   -2.5777    1.0677 O.2       0 UNK        -0.5197 
      4 N          26.2415   -4.6880    0.5383 N.am      1 UNK        -0.4892 
      5 CA         27.5996   -4.3842    0.0761 C.3       1 UNK         0.0835 
      6 C6         28.4298   -5.6739   -0.1328 C.3       12 UNK        -0.0855 
      7 S7         30.2251   -5.3632   -0.0387 S.3       12 UNK        -0.2931 
      8 C8         30.8084   -5.9688   -1.6549 C.3       12 UNK         0.0378 
      9 C9         30.7044   -4.9142   -2.7488 C.ar      12 UNK        -0.0802 
     10 C10        31.6448   -3.8817   -2.8076 C.ar      12 UNK        -0.0944 
     11 C11        31.6091   -2.9465   -3.8449 C.ar      12 UNK        -0.0787 
     12 C12        30.6249   -3.0480   -4.8321 C.ar      12 UNK        -0.0862 
     13 C13        29.6693   -4.0677   -4.7796 C.ar      12 UNK        -0.0733 
     14 C14        29.7118   -4.9955   -3.7318 C.ar      12 UNK        -0.0832 
     15 C15        28.6141   -4.1909   -5.8720 C.3       12 UNK         0.0240 
     16 S16        27.2080   -3.0642   -5.6041 S.3       12 UNK        -0.2522 
     17 C17        27.8441   -1.4864   -6.2637 C.3       12 UNK        -0.0967 
     18 CA         26.7421   -0.6739   -6.9853 C.3       5 UNK         0.0660 
     19 N          25.6138   -0.3224   -6.1090 N.am      5 UNK        -0.4015 
     20 C          24.3927    0.0162   -6.5547 C.2       4 UNK         0.4946 
     21 O          24.1077    0.0460   -7.7532 O.2       4 UNK        -0.5353 
     22 CA         23.3238    0.4715   -5.5381 C.3       4 UNK         0.0277 
     23 CB         21.9900   -0.2821   -5.7283 C.3       4 UNK        -0.1981 
     24 N          23.7578    0.4705   -4.1339 N.am      4 UNK        -0.4209 
     25 C          23.9990   -0.5841   -3.3428 C.2       3 UNK         0.4942 
     26 O          23.8333   -1.7598   -3.6705 O.2       3 UNK        -0.5208 
     27 CA         24.5701   -0.2563   -1.9509 C.3       3 UNK         0.0250 
     28 CB         23.6229   -0.7434   -0.8427 C.3       3 UNK        -0.1990 
     29 N          25.9003   -0.8420   -1.7571 N.am      3 UNK        -0.4232 
     30 C          26.9584   -0.6301   -2.5567 C.2       2 UNK         0.4993 
     31 O          26.9339    0.1561   -3.5064 O.2       2 UNK        -0.5286 
     32 CA         28.2667   -1.3945   -2.2678 C.3       2 UNK         0.0209 
     33 CB         29.4294   -0.4202   -2.0127 C.3       2 UNK        -0.1931 
     34 N          28.1913   -2.3479   -1.1580 N.am      2 UNK        -0.4546 
     35 C          27.5521   -3.5243   -1.2017 C.2       1 UNK         0.5154 
     36 O          26.9218   -3.9336   -2.1776 O.2       1 UNK        -0.5181 
     37 C          27.3449    0.5649   -7.6789 C.2       5 UNK         0.5014 
     38 O          28.0707    0.4068   -8.6617 O.2       5 UNK        -0.5248 
     39 N          27.0175    1.7756   -7.1989 N.am      6 UNK        -0.4434 
     40 CA         27.3855    3.0666   -7.7920 C.3       6 UNK         0.0363 
     41 CB         26.8348    4.2018   -6.9161 C.3       6 UNK        -0.1936 
     42 C          26.9277    3.2422   -9.2528 C.2       6 UNK         0.5081 
     43 O          27.5826    3.9664  -10.0012 O.2       6 UNK        -0.5248 
     44 N          25.8679    2.5268   -9.6602 N.am      7 UNK        -0.4718 
     45 CA         25.4149    2.4134  -11.0517 C.3       7 UNK         0.0273 
     46 CB         24.0807    1.6511  -11.0820 C.3       7 UNK        -0.1935 
     47 C          26.4418    1.7386  -11.9854 C.2       7 UNK         0.5018 
     48 O          26.4162    1.9946  -13.1894 O.2       7 UNK        -0.5186 
     49 N          27.3356    0.9190  -11.4151 N.am      8 UNK        -0.4240 
     50 CA         28.4798    0.2934  -12.0798 C.3       8 UNK         0.0235 
     51 CB         28.4390   -1.2208  -11.8010 C.3       8 UNK        -0.2000 
     52 C          29.8089    0.9217  -11.6105 C.2       8 UNK         0.4941 
     53 O          30.8562    0.2918  -11.7593 O.2       8 UNK        -0.5273 
     54 N          29.7472    2.1376  -11.0417 N.am      9 UNK        -0.4262 
     55 CA         30.8465    2.9345  -10.4798 C.3       9 UNK         0.0264 
     56 CB         31.9104    3.2620  -11.5501 C.3       9 UNK        -0.1955 
     57 C          31.4641    2.3646   -9.1852 C.2       9 UNK         0.5031 
     58 O          32.5331    2.8297   -8.7853 O.2       9 UNK        -0.5390 
     59 N          30.7759    1.4158   -8.5300 N.am      10 UNK        -0.4204 
     60 CA         31.1375    0.7626   -7.2674 C.3       10 UNK         0.0237 
     61 CB         30.9152    1.7253   -6.0776 C.3       10 UNK        -0.1985 
     62 C          32.5332    0.1087   -7.3186 C.2       10 UNK         0.4970 
     63 O          32.7506   -0.7586   -8.1661 O.2       10 UNK        -0.4914 
     64 N          33.4281    0.5119   -6.4113 N.am      11 UNK        -0.4285 
     65 CA         34.8081    0.0304   -6.2871 C.3       11 UNK         0.1007 
     66 C          35.7817    1.2332   -6.3463 C.2       11 UNK         0.5703 
     67 N          36.9345    1.0713   -6.9813 N.am      11 UNK        -0.7361 
     68 O          35.5185    2.2984   -5.7893 O.2       11 UNK        -0.4986 
     69 C69        35.0132   -0.7726   -4.9751 C.3       12 UNK        -0.0947 
     70 S70        34.0544   -2.3226   -4.9437 S.3       12 UNK        -0.2240 
     71 C71        32.6423   -1.8349   -3.9080 C.3       12 UNK         0.0194 
     72 H72        23.2229   -3.7890    0.7392 H         1 UNK         0.0906 
     73 H73        23.8800   -5.3407    1.2630 H         1 UNK         0.0906 
     74 H74        23.7696   -3.9997    2.4043 H         1 UNK         0.0906 
     75 H75        25.9504   -5.6513    0.4491 H         1 UNK         0.3140 
     76 H76        28.0705   -3.8023    0.8722 H         1 UNK         0.1085 
     77 H77        28.2020   -6.3933    0.6555 H         1 UNK         0.0836 
     78 H78        28.1663   -6.1708   -1.0687 H         1 UNK         0.0836 
     79 H79        30.2697   -6.8764   -1.9319 H         1 UNK         0.0731 
     80 H80        31.8533   -6.2658   -1.5526 H         1 UNK         0.0731 
     81 H81        32.4159   -3.8168   -2.0519 H         1 UNK         0.1312 
     82 H82        30.6106   -2.3367   -5.6455 H         1 UNK         0.1406 
     83 H83        28.9790   -5.7900   -3.6905 H         1 UNK         0.1631 
     84 H84        28.2306   -5.2118   -5.9019 H         1 UNK         0.0717 
     85 H85        29.0601   -4.0133   -6.8516 H         1 UNK         0.0717 
     86 H86        28.2957   -0.9117   -5.4543 H         1 UNK         0.0934 
     87 H87        28.6504   -1.7095   -6.9643 H         1 UNK         0.0934 
     88 H88        26.3514   -1.3042   -7.7875 H         1 UNK         0.0739 
     89 H89        25.8136   -0.3006   -5.1135 H         1 UNK         0.3093 
     90 H90        23.1319    1.5190   -5.7757 H         1 UNK         0.0818 
     91 H91        21.2331    0.0638   -5.0245 H         1 UNK         0.0819 
     92 H92        21.5932   -0.1240   -6.7319 H         1 UNK         0.0819 
     93 H93        22.1061   -1.3581   -5.5970 H         1 UNK         0.0819 
     94 H94        23.9536    1.3870   -3.7535 H         1 UNK         0.3041 
     95 H95        24.6760    0.8261   -1.8529 H         1 UNK         0.0784 
     96 H96        22.6321   -0.3007   -0.9525 H         1 UNK         0.0793 
     97 H97        23.5008   -1.8268   -0.8679 H         1 UNK         0.0793 
     98 H98        23.9925   -0.4704    0.1460 H         1 UNK         0.0793 
     99 H99        25.9954   -1.5059   -0.9994 H         1 UNK         0.3024 
    100 H100       28.4974   -1.9621   -3.1702 H         1 UNK         0.1171 
    101 H101       30.3698   -0.9535   -1.8729 H         1 UNK         0.0786 
    102 H102       29.5674    0.2551   -2.8584 H         1 UNK         0.0786 
    103 H103       29.2543    0.1940   -1.1287 H         1 UNK         0.0786 
    104 H104       28.6656   -2.0829   -0.3066 H         1 UNK         0.2977 
    105 H105       26.4400    1.8106   -6.3718 H         1 UNK         0.3127 
    106 H106       28.4751    3.1308   -7.7884 H         1 UNK         0.0770 
    107 H107       25.7459    4.1752   -6.8568 H         1 UNK         0.0814 
    108 H108       27.1152    5.1762   -7.3190 H         1 UNK         0.0814 
    109 H109       27.2298    4.1485   -5.9013 H         1 UNK         0.0814 
    110 H110       25.3875    1.9499   -8.9823 H         1 UNK         0.2983 
    111 H111       25.2455    3.4232  -11.4320 H         1 UNK         0.0947 
    112 H112       23.7016    1.5655  -12.1014 H         1 UNK         0.0806 
    113 H113       23.3173    2.1628  -10.4956 H         1 UNK         0.0806 
    114 H114       24.1849    0.6399  -10.6857 H         1 UNK         0.0806 
    115 H115       27.3014    0.7837  -10.4086 H         1 UNK         0.3000 
    116 H116       28.4215    0.4443  -13.1596 H         1 UNK         0.0850 
    117 H117       29.2358   -1.7417  -12.3334 H         1 UNK         0.0810 
    118 H118       27.4954   -1.6582  -12.1272 H         1 UNK         0.0810 
    119 H119       28.5593   -1.4371  -10.7385 H         1 UNK         0.0810 
    120 H120       28.8355    2.5749  -10.9607 H         1 UNK         0.3040 
    121 H121       30.3909    3.8809  -10.1850 H         1 UNK         0.0766 
    122 H122       32.4823    2.3796  -11.8379 H         1 UNK         0.0812 
    123 H123       32.6232    4.0001  -11.1802 H         1 UNK         0.0812 
    124 H124       31.4556    3.6772  -12.4492 H         1 UNK         0.0812 
    125 H125       29.9070    1.0860   -8.9400 H         1 UNK         0.3205 
    126 H126       30.4377   -0.0640   -7.1471 H         1 UNK         0.0754 
    127 H127       31.1071    1.2328   -5.1235 H         1 UNK         0.0769 
    128 H128       29.8826    2.0721   -6.0451 H         1 UNK         0.0769 
    129 H129       31.5546    2.6070   -6.1368 H         1 UNK         0.0769 
    130 H130       33.1957    1.2903   -5.8114 H         1 UNK         0.2981 
    131 H131       35.0459   -0.6235   -7.1286 H         1 UNK         0.0541 
    132 H132       37.1669    0.1976   -7.4278 H         1 UNK         0.3459 
    133 H133       37.5857    1.8400   -7.0164 H         1 UNK         0.3459 
    134 H134       34.7627   -0.1664   -4.1024 H         1 UNK         0.0612 
    135 H135       36.0637   -1.0468   -4.8609 H         1 UNK         0.0612 
    136 H136       32.9961   -1.5875   -2.9060 H         1 UNK         0.0624 
    137 H137       32.1851   -0.9294   -4.3073 H         1 UNK         0.0624 
@<TRIPOS>BOND
     1    1    2 1    
     2    1   72 1    
     3    1   73 1    
     4    1   74 1    
     5    2    3 2    
     6    2    4 am   BACKBONE|DICT|INTERRES
     7    4    5 1    
     8    4   75 1    
     9    5    6 1    
    10    5   35 1    
    11    5   76 1    
    12    6    7 1    
    13    6   77 1    
    14    6   78 1    
    15    7    8 1    
    16    8    9 1    
    17    8   79 1    
    18    8   80 1    
    19    9   10 ar   
    20    9   14 ar   
    21   10   11 ar   
    22   10   81 1    
    23   11   12 ar   
    24   11   71 1    
    25   12   13 ar   
    26   12   82 1    
    27   13   14 ar   
    28   13   15 1    
    29   14   83 1    
    30   15   16 1    
    31   15   84 1    
    32   15   85 1    
    33   16   17 1    
    34   17   18 1    
    35   17   86 1    
    36   17   87 1    
    37   18   19 1    
    38   18   37 1    
    39   18   88 1    
    40   19   20 am   BACKBONE|DICT|INTERRES
    41   19   89 1    
    42   20   21 2    
    43   20   22 1    
    44   22   23 1    
    45   22   24 1    
    46   22   90 1    
    47   23   91 1    
    48   23   92 1    
    49   23   93 1    
    50   24   25 am   BACKBONE|DICT|INTERRES
    51   24   94 1    
    52   25   26 2    
    53   25   27 1    
    54   27   28 1    
    55   27   29 1    
    56   27   95 1    
    57   28   96 1    
    58   28   97 1    
    59   28   98 1    
    60   29   30 am   BACKBONE|DICT|INTERRES
    61   29   99 1    
    62   30   31 2    
    63   30   32 1    
    64   32   33 1    
    65   32   34 1    
    66   32  100 1    
    67   33  101 1    
    68   33  102 1    
    69   33  103 1    
    70   34   35 am   BACKBONE|DICT|INTERRES
    71   34  104 1    
    72   35   36 2    
    73   37   38 2    
    74   37   39 am   BACKBONE|DICT|INTERRES
    75   39   40 1    
    76   39  105 1    
    77   40   41 1    
    78   40   42 1    
    79   40  106 1    
    80   41  107 1    
    81   41  108 1    
    82   41  109 1    
    83   42   43 2    
    84   42   44 am   BACKBONE|DICT|INTERRES
    85   44   45 1    
    86   44  110 1    
    87   45   46 1    
    88   45   47 1    
    89   45  111 1    
    90   46  112 1    
    91   46  113 1    
    92   46  114 1    
    93   47   48 2    
    94   47   49 am   BACKBONE|DICT|INTERRES
    95   49   50 1    
    96   49  115 1    
    97   50   51 1    
    98   50   52 1    
    99   50  116 1    
   100   51  117 1    
   101   51  118 1    
   102   51  119 1    
   103   52   53 2    
   104   52   54 am   BACKBONE|DICT|INTERRES
   105   54   55 1    
   106   54  120 1    
   107   55   56 1    
   108   55   57 1    
   109   55  121 1    
   110   56  122 1    
   111   56  123 1    
   112   56  124 1    
   113   57   58 2    
   114   57   59 am   BACKBONE|DICT|INTERRES
   115   59   60 1    
   116   59  125 1    
   117   60   61 1    
   118   60   62 1    
   119   60  126 1    
   120   61  127 1    
   121   61  128 1    
   122   61  129 1    
   123   62   63 2    
   124   62   64 am   BACKBONE|DICT|INTERRES
   125   64   65 1    
   126   64  130 1    
   127   65   66 1    
   128   65   69 1    
   129   65  131 1    
   130   66   67 am   BACKBONE|DICT|INTERRES
   131   66   68 2    
   132   67  132 1    
   133   67  133 1    
   134   69   70 1    
   135   69  134 1    
   136   69  135 1    
   137   70   71 1    
   138   71  136 1    
   139   71  137 1    
@<TRIPOS>SUBSTRUCTURE
     1 UNK         1 GROUP             0       ****    0 ROOT    
