@<TRIPOS>MOLECULE
3R137
137   139    1
SMALL
USER_CHARGES


@<TRIPOS>ATOM
      1 CA         27.6056    2.7932    1.9624 C.3       0 UNK        -0.2020 
      2 C          27.0645    1.9879    0.7903 C.2       0 UNK         0.4855 
      3 O          26.3887    2.5456   -0.0754 O.2       0 UNK        -0.5197 
      4 N          27.3639    0.6839    0.7510 N.am      1 UNK        -0.4892 
      5 CA         26.8949   -0.2524   -0.2781 C.3       1 UNK         0.0835 
      6 C6         27.7624   -1.5378   -0.3360 C.3       12 UNK        -0.0855 
      7 S7         29.5343   -1.1783   -0.5791 S.3       12 UNK        -0.2931 
      8 C8         30.1751   -2.7971   -1.1182 C.3       12 UNK         0.0378 
      9 C9         30.3671   -2.8790   -2.6281 C.ar      12 UNK        -0.0802 
     10 C10        31.2971   -2.0438   -3.2552 C.ar      12 UNK        -0.0944 
     11 C11        31.5434   -2.1559   -4.6256 C.ar      12 UNK        -0.0787 
     12 C12        30.8563   -3.1151   -5.3734 C.ar      12 UNK        -0.0862 
     13 C13        29.9285   -3.9617   -4.7609 C.ar      12 UNK        -0.0733 
     14 C14        29.6766   -3.8298   -3.3895 C.ar      12 UNK        -0.0832 
     15 C15        29.2560   -5.0670   -5.5638 C.3       12 UNK         0.0240 
     16 S16        27.7090   -4.5229   -6.3489 S.3       12 UNK        -0.2522 
     17 C17        28.2821   -3.7773   -7.9200 C.3       12 UNK        -0.0967 
     18 CA         27.7075   -2.3625   -8.1853 C.3       5 UNK         0.0660 
     19 N          26.2498   -2.3346   -8.0292 N.am      5 UNK        -0.4015 
     20 C          25.4506   -1.2937   -8.2923 C.2       4 UNK         0.4946 
     21 O          25.8453   -0.2382   -8.7823 O.2       4 UNK        -0.5353 
     22 CA         23.9675   -1.4233   -7.9047 C.3       4 UNK         0.0277 
     23 CB         23.1320   -1.8278   -9.1294 C.3       4 UNK        -0.1981 
     24 N          23.6910   -2.3476   -6.7976 N.am      4 UNK        -0.4209 
     25 C          24.2028   -2.2648   -5.5612 C.2       3 UNK         0.4942 
     26 O          25.0656   -1.4487   -5.2226 O.2       3 UNK        -0.5208 
     27 CA         23.6909   -3.3095   -4.5562 C.3       3 UNK         0.0250 
     28 CB         24.4764   -4.6236   -4.6858 C.3       3 UNK        -0.1990 
     29 N          23.7993   -2.8373   -3.1777 N.am      3 UNK        -0.4232 
     30 C          23.0073   -1.9136   -2.6169 C.2       2 UNK         0.4993 
     31 O          22.0528   -1.3798   -3.1828 O.2       2 UNK        -0.5286 
     32 CA         23.3622   -1.5176   -1.1818 C.3       2 UNK         0.0209 
     33 CB         23.0355   -2.6719   -0.2080 C.3       2 UNK        -0.1931 
     34 N          24.7750   -1.1325   -1.1290 N.am      2 UNK        -0.4546 
     35 C          25.4056   -0.6062   -0.0729 C.2       1 UNK         0.5154 
     36 O          24.8687   -0.4222    1.0235 O.2       1 UNK        -0.5181 
     37 C          28.4327   -1.2862   -7.3496 C.2       5 UNK         0.5014 
     38 O          29.4362   -0.7397   -7.8142 O.2       5 UNK        -0.5248 
     39 N          27.9070   -0.9804   -6.1551 N.am      6 UNK        -0.4434 
     40 CA         28.4254    0.0731   -5.2862 C.3       6 UNK         0.0363 
     41 CB         27.9634   -0.1776   -3.8454 C.3       6 UNK        -0.1936 
     42 C          27.9799    1.4626   -5.7621 C.2       6 UNK         0.5081 
     43 O          28.7806    2.3956   -5.7297 O.2       6 UNK        -0.5248 
     44 N          26.7223    1.5709   -6.2164 N.am      7 UNK        -0.4718 
     45 CA         26.1267    2.8054   -6.7382 C.3       7 UNK         0.0273 
     46 CB         24.6080    2.6232   -6.8894 C.3       7 UNK        -0.1935 
     47 C          26.7589    3.2535   -8.0666 C.2       7 UNK         0.5018 
     48 O          27.0343    4.4412   -8.2383 O.2       7 UNK        -0.5186 
     49 N          27.0046    2.2911   -8.9659 N.am      8 UNK        -0.4240 
     50 CA         27.7091    2.4862  -10.2354 C.3       8 UNK         0.0235 
     51 CB         27.4091    1.2947  -11.1604 C.3       8 UNK        -0.2000 
     52 C          29.2302    2.6550  -10.0688 C.2       8 UNK         0.4941 
     53 O          29.8802    3.1015  -11.0147 O.2       8 UNK        -0.5273 
     54 N          29.7618    2.2861   -8.8923 N.am      9 UNK        -0.4262 
     55 CA         31.1762    2.2702   -8.5094 C.3       9 UNK         0.0264 
     56 CB         31.7479    3.7020   -8.4378 C.3       9 UNK        -0.1955 
     57 C          31.9958    1.3300   -9.4107 C.2       9 UNK         0.5031 
     58 O          32.9422    1.7639  -10.0700 O.2       9 UNK        -0.5390 
     59 N          31.6004    0.0492   -9.4265 N.am      10 UNK        -0.4204 
     60 CA         32.2366   -1.0192  -10.2066 C.3       10 UNK         0.0237 
     61 CB         31.3340   -2.2635  -10.1721 C.3       10 UNK        -0.1985 
     62 C          33.6601   -1.3776   -9.7352 C.2       10 UNK         0.4970 
     63 O          34.4246   -1.9518  -10.5116 O.2       10 UNK        -0.4914 
     64 N          33.9782   -1.0504   -8.4778 N.am      11 UNK        -0.4285 
     65 CA         35.2877   -1.2295   -7.8410 C.3       11 UNK         0.1007 
     66 C          36.3864   -0.3503   -8.4971 C.2       11 UNK         0.5703 
     67 N          37.5671   -0.9042   -8.7377 N.am      11 UNK        -0.7361 
     68 O          36.1920    0.8382   -8.7440 O.2       11 UNK        -0.4986 
     69 C69        35.1980   -0.9475   -6.3193 C.3       12 UNK        -0.0947 
     70 S70        34.1579   -2.1676   -5.4538 S.3       12 UNK        -0.2240 
     71 C71        32.5822   -1.2728   -5.2940 C.3       12 UNK         0.0194 
     72 H72        28.2368    3.6045    1.6009 H         1 UNK         0.0906 
     73 H73        26.7831    3.2277    2.5300 H         1 UNK         0.0906 
     74 H74        28.1984    2.1792    2.6404 H         1 UNK         0.0906 
     75 H75        27.9156    0.2740    1.4910 H         1 UNK         0.3140 
     76 H76        26.9735    0.2576   -1.2392 H         1 UNK         0.1085 
     77 H77        27.6535   -2.1190    0.5820 H         1 UNK         0.0836 
     78 H78        27.4322   -2.1847   -1.1513 H         1 UNK         0.0836 
     79 H79        31.1415   -2.9606   -0.6392 H         1 UNK         0.0731 
     80 H80        29.5238   -3.5952   -0.7584 H         1 UNK         0.0731 
     81 H81        31.8438   -1.3182   -2.6683 H         1 UNK         0.1312 
     82 H82        31.0698   -3.2184   -6.4278 H         1 UNK         0.1406 
     83 H83        28.9699   -4.4935   -2.9100 H         1 UNK         0.1631 
     84 H84        29.0274   -5.9069   -4.9061 H         1 UNK         0.0717 
     85 H85        29.9380   -5.4608   -6.3189 H         1 UNK         0.0717 
     86 H86        29.3717   -3.7700   -7.9651 H         1 UNK         0.0934 
     87 H87        27.9706   -4.4446   -8.7252 H         1 UNK         0.0934 
     88 H88        27.9106   -2.1172   -9.2300 H         1 UNK         0.0739 
     89 H89        25.8424   -3.1564   -7.6078 H         1 UNK         0.3093 
     90 H90        23.6369   -0.4348   -7.5812 H         1 UNK         0.0818 
     91 H91        22.0648   -1.8077   -8.9078 H         1 UNK         0.0819 
     92 H92        23.2995   -1.1406   -9.9603 H         1 UNK         0.0819 
     93 H93        23.3854   -2.8293   -9.4793 H         1 UNK         0.0819 
     94 H94        23.0059   -3.0667   -6.9826 H         1 UNK         0.3041 
     95 H95        22.6383   -3.5082   -4.7703 H         1 UNK         0.0784 
     96 H96        24.4632   -4.9984   -5.7101 H         1 UNK         0.0793 
     97 H97        25.5197   -4.4971   -4.3958 H         1 UNK         0.0793 
     98 H98        24.0490   -5.4025   -4.0539 H         1 UNK         0.0793 
     99 H99        24.5542   -3.2237   -2.6311 H         1 UNK         0.3024 
    100 H100       22.7570   -0.6480   -0.9154 H         1 UNK         0.1171 
    101 H101       22.0143   -3.0275   -0.3531 H         1 UNK         0.0786 
    102 H102       23.1124   -2.3575    0.8324 H         1 UNK         0.0786 
    103 H103       23.7011   -3.5242   -0.3476 H         1 UNK         0.0786 
    104 H104       25.2702   -1.2034   -2.0081 H         1 UNK         0.2977 
    105 H105       27.0572   -1.4450   -5.8527 H         1 UNK         0.3127 
    106 H106       29.5170    0.0368   -5.3032 H         1 UNK         0.0770 
    107 H107       26.8826   -0.0786   -3.7424 H         1 UNK         0.0814 
    108 H108       28.4290    0.5361   -3.1647 H         1 UNK         0.0814 
    109 H109       28.2424   -1.1757   -3.5102 H         1 UNK         0.0814 
    110 H110       26.1403    0.7444   -6.2156 H         1 UNK         0.2983 
    111 H111       26.3037    3.5957   -6.0051 H         1 UNK         0.0947 
    112 H112       24.1359    3.5547   -7.2046 H         1 UNK         0.0806 
    113 H113       24.1455    2.3284   -5.9472 H         1 UNK         0.0806 
    114 H114       24.3630    1.8681   -7.6364 H         1 UNK         0.0806 
    115 H115       26.6729    1.3452   -8.7741 H         1 UNK         0.3000 
    116 H116       27.3263    3.3941  -10.7065 H         1 UNK         0.0850 
    117 H117       27.8764    1.4283  -12.1370 H         1 UNK         0.0810 
    118 H118       26.3376    1.1806  -11.3262 H         1 UNK         0.0810 
    119 H119       27.7841    0.3587  -10.7436 H         1 UNK         0.0810 
    120 H120       29.1256    1.9265   -8.1939 H         1 UNK         0.3040 
    121 H121       31.2160    1.8511   -7.5025 H         1 UNK         0.0766 
    122 H122       32.7736    3.6923   -8.0671 H         1 UNK         0.0812 
    123 H123       31.1637    4.3265   -7.7618 H         1 UNK         0.0812 
    124 H124       31.7614    4.1863   -9.4147 H         1 UNK         0.0812 
    125 H125       30.7949   -0.2179   -8.8578 H         1 UNK         0.3205 
    126 H126       32.3124   -0.6771  -11.2408 H         1 UNK         0.0754 
    127 H127       31.7476   -3.0649  -10.7859 H         1 UNK         0.0769 
    128 H128       30.3376   -2.0429  -10.5557 H         1 UNK         0.0769 
    129 H129       31.2261   -2.6506   -9.1584 H         1 UNK         0.0769 
    130 H130       33.2891   -0.5595   -7.9328 H         1 UNK         0.2981 
    131 H131       35.5696   -2.2756   -7.9774 H         1 UNK         0.0541 
    132 H132       37.7410   -1.8747   -8.5264 H         1 UNK         0.3459 
    133 H133       38.2972   -0.3425   -9.1471 H         1 UNK         0.3459 
    134 H134       36.1893   -0.9988   -5.8650 H         1 UNK         0.0612 
    135 H135       34.8284    0.0616   -6.1265 H         1 UNK         0.0612 
    136 H136       32.2211   -0.9668   -6.2763 H         1 UNK         0.0624 
    137 H137       32.7373   -0.3593   -4.7177 H         1 UNK         0.0624 
@<TRIPOS>BOND
     1    1    2 1    
     2    1   72 1    
     3    1   73 1    
     4    1   74 1    
     5    2    3 2    
     6    2    4 am   BACKBONE|DICT|INTERRES
     7    4    5 1    
     8    4   75 1    
     9    5    6 1    
    10    5   35 1    
    11    5   76 1    
    12    6    7 1    
    13    6   77 1    
    14    6   78 1    
    15    7    8 1    
    16    8    9 1    
    17    8   79 1    
    18    8   80 1    
    19    9   10 ar   
    20    9   14 ar   
    21   10   11 ar   
    22   10   81 1    
    23   11   12 ar   
    24   11   71 1    
    25   12   13 ar   
    26   12   82 1    
    27   13   14 ar   
    28   13   15 1    
    29   14   83 1    
    30   15   16 1    
    31   15   84 1    
    32   15   85 1    
    33   16   17 1    
    34   17   18 1    
    35   17   86 1    
    36   17   87 1    
    37   18   19 1    
    38   18   37 1    
    39   18   88 1    
    40   19   20 am   BACKBONE|DICT|INTERRES
    41   19   89 1    
    42   20   21 2    
    43   20   22 1    
    44   22   23 1    
    45   22   24 1    
    46   22   90 1    
    47   23   91 1    
    48   23   92 1    
    49   23   93 1    
    50   24   25 am   BACKBONE|DICT|INTERRES
    51   24   94 1    
    52   25   26 2    
    53   25   27 1    
    54   27   28 1    
    55   27   29 1    
    56   27   95 1    
    57   28   96 1    
    58   28   97 1    
    59   28   98 1    
    60   29   30 am   BACKBONE|DICT|INTERRES
    61   29   99 1    
    62   30   31 2    
    63   30   32 1    
    64   32   33 1    
    65   32   34 1    
    66   32  100 1    
    67   33  101 1    
    68   33  102 1    
    69   33  103 1    
    70   34   35 am   BACKBONE|DICT|INTERRES
    71   34  104 1    
    72   35   36 2    
    73   37   38 2    
    74   37   39 am   BACKBONE|DICT|INTERRES
    75   39   40 1    
    76   39  105 1    
    77   40   41 1    
    78   40   42 1    
    79   40  106 1    
    80   41  107 1    
    81   41  108 1    
    82   41  109 1    
    83   42   43 2    
    84   42   44 am   BACKBONE|DICT|INTERRES
    85   44   45 1    
    86   44  110 1    
    87   45   46 1    
    88   45   47 1    
    89   45  111 1    
    90   46  112 1    
    91   46  113 1    
    92   46  114 1    
    93   47   48 2    
    94   47   49 am   BACKBONE|DICT|INTERRES
    95   49   50 1    
    96   49  115 1    
    97   50   51 1    
    98   50   52 1    
    99   50  116 1    
   100   51  117 1    
   101   51  118 1    
   102   51  119 1    
   103   52   53 2    
   104   52   54 am   BACKBONE|DICT|INTERRES
   105   54   55 1    
   106   54  120 1    
   107   55   56 1    
   108   55   57 1    
   109   55  121 1    
   110   56  122 1    
   111   56  123 1    
   112   56  124 1    
   113   57   58 2    
   114   57   59 am   BACKBONE|DICT|INTERRES
   115   59   60 1    
   116   59  125 1    
   117   60   61 1    
   118   60   62 1    
   119   60  126 1    
   120   61  127 1    
   121   61  128 1    
   122   61  129 1    
   123   62   63 2    
   124   62   64 am   BACKBONE|DICT|INTERRES
   125   64   65 1    
   126   64  130 1    
   127   65   66 1    
   128   65   69 1    
   129   65  131 1    
   130   66   67 am   BACKBONE|DICT|INTERRES
   131   66   68 2    
   132   67  132 1    
   133   67  133 1    
   134   69   70 1    
   135   69  134 1    
   136   69  135 1    
   137   70   71 1    
   138   71  136 1    
   139   71  137 1    
@<TRIPOS>SUBSTRUCTURE
     1 UNK         1 GROUP             0       ****    0 ROOT    
