@<TRIPOS>MOLECULE
3R137
137   139    1
SMALL
USER_CHARGES


@<TRIPOS>ATOM
      1 CA         26.5089   -6.6927   -4.8897 C.3       0 UNK        -0.2020 
      2 C          26.3149   -6.2016   -3.4631 C.2       0 UNK         0.4855 
      3 O          25.6528   -6.8695   -2.6683 O.2       0 UNK        -0.5197 
      4 N          26.8862   -5.0397   -3.1357 N.am      1 UNK        -0.4892 
      5 CA         26.8388   -4.4067   -1.8182 C.3       1 UNK         0.0835 
      6 C6         27.9940   -4.8412   -0.8713 C.3       12 UNK        -0.0855 
      7 S7         29.6054   -5.1848   -1.6702 S.3       12 UNK        -0.2931 
      8 C8         30.6536   -3.7897   -1.1402 C.3       12 UNK         0.0378 
      9 C9         30.6949   -2.6306   -2.1327 C.ar      12 UNK        -0.0802 
     10 C10        30.8163   -2.8587   -3.5086 C.ar      12 UNK        -0.0944 
     11 C11        30.9510   -1.7913   -4.4012 C.ar      12 UNK        -0.0787 
     12 C12        30.9714   -0.4843   -3.9089 C.ar      12 UNK        -0.0862 
     13 C13        30.8210   -0.2356   -2.5400 C.ar      12 UNK        -0.0733 
     14 C14        30.6880   -1.3149   -1.6601 C.ar      12 UNK        -0.0832 
     15 C15        30.8056    1.1887   -1.9874 C.3       12 UNK         0.0240 
     16 S16        29.8486    2.3831   -2.9872 S.3       12 UNK        -0.2522 
     17 C17        28.2679    1.5103   -3.2498 C.3       12 UNK        -0.0967 
     18 CA         27.9796    1.3082   -4.7624 C.3       5 UNK         0.0660 
     19 N          27.4045   -0.0072   -5.0557 N.am      5 UNK        -0.4015 
     20 C          27.2087   -0.4986   -6.2882 C.2       4 UNK         0.4946 
     21 O          27.6114    0.0455   -7.3168 O.2       4 UNK        -0.5353 
     22 CA         26.3730   -1.7845   -6.3972 C.3       4 UNK         0.0277 
     23 CB         27.2627   -3.0358   -6.3482 C.3       4 UNK        -0.1981 
     24 N          25.3457   -1.8545   -5.3538 N.am      4 UNK        -0.4209 
     25 C          24.2339   -1.1030   -5.3485 C.2       3 UNK         0.4942 
     26 O          23.9325   -0.3292   -6.2555 O.2       3 UNK        -0.5208 
     27 CA         23.3278   -1.1913   -4.1073 C.3       3 UNK         0.0250 
     28 CB         22.3482   -2.3680   -4.2386 C.3       3 UNK        -0.1990 
     29 N          24.0785   -1.3156   -2.8552 N.am      3 UNK        -0.4232 
     30 C          24.9156   -0.3865   -2.3697 C.2       2 UNK         0.4993 
     31 O          25.0848    0.7153   -2.8895 O.2       2 UNK        -0.5286 
     32 CA         25.7554   -0.7735   -1.1374 C.3       2 UNK         0.0209 
     33 CB         25.0418   -0.3450    0.1541 C.3       2 UNK        -0.1931 
     34 N          26.0801   -2.2047   -1.0686 N.am      2 UNK        -0.4546 
     35 C          26.7437   -2.8864   -2.0144 C.2       1 UNK         0.5154 
     36 O          27.1958   -2.3635   -3.0373 O.2       1 UNK        -0.5181 
     37 C          27.1040    2.4440   -5.3304 C.2       5 UNK         0.5014 
     38 O          27.6159    3.3082   -6.0421 O.2       5 UNK        -0.5248 
     39 N          25.7931    2.3929   -5.0480 N.am      6 UNK        -0.4434 
     40 CA         24.7812    3.3251   -5.5568 C.3       6 UNK         0.0363 
     41 CB         23.4301    3.0328   -4.8856 C.3       6 UNK        -0.1936 
     42 C          24.6438    3.3013   -7.0901 C.2       6 UNK         0.5081 
     43 O          24.4552    4.3560   -7.6962 O.2       6 UNK        -0.5248 
     44 N          24.7795    2.1120   -7.6932 N.am      7 UNK        -0.4718 
     45 CA         24.8307    1.9062   -9.1449 C.3       7 UNK         0.0273 
     46 CB         24.5605    0.4238   -9.4498 C.3       7 UNK        -0.1935 
     47 C          26.1577    2.3518   -9.7936 C.2       7 UNK         0.5018 
     48 O          26.2320    2.3810  -11.0228 O.2       7 UNK        -0.5186 
     49 N          27.1681    2.6805   -8.9740 N.am      8 UNK        -0.4240 
     50 CA         28.5234    3.1006   -9.3384 C.3       8 UNK         0.0235 
     51 CB         28.5042    4.4581  -10.0743 C.3       8 UNK        -0.2000 
     52 C          29.3079    2.0086  -10.0884 C.2       8 UNK         0.4941 
     53 O          29.9628    2.3011  -11.0921 O.2       8 UNK        -0.5273 
     54 N          29.2395    0.7671   -9.5849 N.am      9 UNK        -0.4262 
     55 CA         30.0468   -0.3587  -10.0620 C.3       9 UNK         0.0264 
     56 CB         29.5313   -1.6590   -9.4283 C.3       9 UNK        -0.1955 
     57 C          31.5405   -0.1510   -9.7504 C.2       9 UNK         0.5031 
     58 O          31.8804    0.4409   -8.7213 O.2       9 UNK        -0.5390 
     59 N          32.4070   -0.6488  -10.6412 N.am      10 UNK        -0.4204 
     60 CA         33.8602   -0.4475  -10.6295 C.3       10 UNK         0.0237 
     61 CB         34.4018   -0.6871  -12.0523 C.3       10 UNK        -0.1985 
     62 C          34.6003   -1.2852   -9.5648 C.2       10 UNK         0.4970 
     63 O          35.5207   -2.0332   -9.9011 O.2       10 UNK        -0.4914 
     64 N          34.1980   -1.1361   -8.2988 N.am      11 UNK        -0.4285 
     65 CA         34.8552   -1.7430   -7.1291 C.3       11 UNK         0.1007 
     66 C          36.1544   -1.0130   -6.6780 C.2       11 UNK         0.5703 
     67 N          36.4700    0.1714   -7.1902 N.am      11 UNK        -0.7361 
     68 O          36.8993   -1.5393   -5.8545 O.2       11 UNK        -0.4986 
     69 C69        33.8741   -1.9162   -5.9419 C.3       12 UNK        -0.0947 
     70 S70        32.5037   -3.0493   -6.3434 S.3       12 UNK        -0.2240 
     71 C71        31.0527   -2.0469   -5.8986 C.3       12 UNK         0.0194 
     72 H72        27.3100   -6.1563   -5.3976 H         1 UNK         0.0906 
     73 H73        26.7643   -7.7521   -4.8911 H         1 UNK         0.0906 
     74 H74        25.5903   -6.5624   -5.4610 H         1 UNK         0.0906 
     75 H75        27.4087   -4.5050   -3.8169 H         1 UNK         0.3140 
     76 H76        25.8990   -4.6982   -1.3428 H         1 UNK         0.1085 
     77 H77        28.1221   -4.1342   -0.0497 H         1 UNK         0.0836 
     78 H78        27.6990   -5.7744   -0.3889 H         1 UNK         0.0836 
     79 H79        31.6725   -4.1607   -1.0232 H         1 UNK         0.0731 
     80 H80        30.3427   -3.4507   -0.1511 H         1 UNK         0.0731 
     81 H81        30.8249   -3.8706   -3.8891 H         1 UNK         0.1312 
     82 H82        31.0845    0.3433   -4.5951 H         1 UNK         0.1406 
     83 H83        30.5973   -1.1300   -0.5982 H         1 UNK         0.1631 
     84 H84        31.8335    1.5441   -1.9071 H         1 UNK         0.0717 
     85 H85        30.3967    1.1979   -0.9758 H         1 UNK         0.0717 
     86 H86        28.3084    0.5474   -2.7412 H         1 UNK         0.0934 
     87 H87        27.4732    2.0611   -2.7423 H         1 UNK         0.0934 
     88 H88        28.9245    1.3356   -5.3097 H         1 UNK         0.0739 
     89 H89        27.0976   -0.5625   -4.2667 H         1 UNK         0.3093 
     90 H90        25.8702   -1.7744   -7.3659 H         1 UNK         0.0818 
     91 H91        27.8715   -3.0716   -5.4451 H         1 UNK         0.0819 
     92 H92        26.6658   -3.9461   -6.3949 H         1 UNK         0.0819 
     93 H93        27.9431   -3.0571   -7.1994 H         1 UNK         0.0819 
     94 H94        25.5638   -2.4127   -4.5398 H         1 UNK         0.3041 
     95 H95        22.7478   -0.2673   -4.0565 H         1 UNK         0.0784 
     96 H96        21.7632   -2.2866   -5.1560 H         1 UNK         0.0793 
     97 H97        22.8664   -3.3275   -4.2668 H         1 UNK         0.0793 
     98 H98        21.6421   -2.3912   -3.4083 H         1 UNK         0.0793 
     99 H99        23.9874   -2.1858   -2.3521 H         1 UNK         0.3024 
    100 H100       26.6973   -0.2263   -1.2018 H         1 UNK         0.1171 
    101 H101       24.8102    0.7212    0.1358 H         1 UNK         0.0786 
    102 H102       25.6656   -0.5227    1.0304 H         1 UNK         0.0786 
    103 H103       24.1020   -0.8802    0.2952 H         1 UNK         0.0786 
    104 H104       25.7387   -2.7014   -0.2574 H         1 UNK         0.2977 
    105 H105       25.4682    1.6802   -4.3954 H         1 UNK         0.3127 
    106 H106       25.0929    4.3318   -5.2710 H         1 UNK         0.0770 
    107 H107       23.0660    2.0347   -5.1301 H         1 UNK         0.0814 
    108 H108       22.6711    3.7456   -5.2106 H         1 UNK         0.0814 
    109 H109       23.5015    3.1060   -3.8002 H         1 UNK         0.0814 
    110 H110       24.8389    1.2796   -7.1146 H         1 UNK         0.2983 
    111 H111       24.0347    2.4990   -9.6007 H         1 UNK         0.0947 
    112 H112       24.5053    0.2490  -10.5251 H         1 UNK         0.0806 
    113 H113       23.6152    0.0929   -9.0193 H         1 UNK         0.0806 
    114 H114       25.3521   -0.2145   -9.0580 H         1 UNK         0.0806 
    115 H115       27.0034    2.6066   -7.9767 H         1 UNK         0.3000 
    116 H116       29.0534    3.2504   -8.3966 H         1 UNK         0.0850 
    117 H117       29.5170    4.8325  -10.2275 H         1 UNK         0.0810 
    118 H118       27.9644    5.2114   -9.5005 H         1 UNK         0.0810 
    119 H119       28.0349    4.3825  -11.0556 H         1 UNK         0.0810 
    120 H120       28.6741    0.6010   -8.7536 H         1 UNK         0.3040 
    121 H121       29.9202   -0.4264  -11.1446 H         1 UNK         0.0766 
    122 H122       28.4882   -1.8401   -9.6883 H         1 UNK         0.0812 
    123 H123       29.6006   -1.6234   -8.3427 H         1 UNK         0.0812 
    124 H124       30.1075   -2.5213   -9.7662 H         1 UNK         0.0812 
    125 H125       32.0398   -1.1634  -11.4291 H         1 UNK         0.3205 
    126 H126       34.0506    0.5995  -10.3839 H         1 UNK         0.0754 
    127 H127       35.4732   -0.4876  -12.1036 H         1 UNK         0.0769 
    128 H128       33.9205   -0.0296  -12.7768 H         1 UNK         0.0769 
    129 H129       34.2454   -1.7168  -12.3765 H         1 UNK         0.0769 
    130 H130       33.4108   -0.5180   -8.1205 H         1 UNK         0.2981 
    131 H131       35.1795   -2.7442   -7.4199 H         1 UNK         0.0541 
    132 H132       37.3178    0.6274   -6.8919 H         1 UNK         0.3459 
    133 H133       35.8663    0.6165   -7.8619 H         1 UNK         0.3459 
    134 H134       34.3845   -2.3307   -5.0706 H         1 UNK         0.0612 
    135 H135       33.4813   -0.9463   -5.6322 H         1 UNK         0.0612 
    136 H136       30.1584   -2.5777   -6.2213 H         1 UNK         0.0624 
    137 H137       31.0779   -1.1102   -6.4577 H         1 UNK         0.0624 
@<TRIPOS>BOND
     1    1    2 1    
     2    1   72 1    
     3    1   73 1    
     4    1   74 1    
     5    2    3 2    
     6    2    4 am   BACKBONE|DICT|INTERRES
     7    4    5 1    
     8    4   75 1    
     9    5    6 1    
    10    5   35 1    
    11    5   76 1    
    12    6    7 1    
    13    6   77 1    
    14    6   78 1    
    15    7    8 1    
    16    8    9 1    
    17    8   79 1    
    18    8   80 1    
    19    9   10 ar   
    20    9   14 ar   
    21   10   11 ar   
    22   10   81 1    
    23   11   12 ar   
    24   11   71 1    
    25   12   13 ar   
    26   12   82 1    
    27   13   14 ar   
    28   13   15 1    
    29   14   83 1    
    30   15   16 1    
    31   15   84 1    
    32   15   85 1    
    33   16   17 1    
    34   17   18 1    
    35   17   86 1    
    36   17   87 1    
    37   18   19 1    
    38   18   37 1    
    39   18   88 1    
    40   19   20 am   BACKBONE|DICT|INTERRES
    41   19   89 1    
    42   20   21 2    
    43   20   22 1    
    44   22   23 1    
    45   22   24 1    
    46   22   90 1    
    47   23   91 1    
    48   23   92 1    
    49   23   93 1    
    50   24   25 am   BACKBONE|DICT|INTERRES
    51   24   94 1    
    52   25   26 2    
    53   25   27 1    
    54   27   28 1    
    55   27   29 1    
    56   27   95 1    
    57   28   96 1    
    58   28   97 1    
    59   28   98 1    
    60   29   30 am   BACKBONE|DICT|INTERRES
    61   29   99 1    
    62   30   31 2    
    63   30   32 1    
    64   32   33 1    
    65   32   34 1    
    66   32  100 1    
    67   33  101 1    
    68   33  102 1    
    69   33  103 1    
    70   34   35 am   BACKBONE|DICT|INTERRES
    71   34  104 1    
    72   35   36 2    
    73   37   38 2    
    74   37   39 am   BACKBONE|DICT|INTERRES
    75   39   40 1    
    76   39  105 1    
    77   40   41 1    
    78   40   42 1    
    79   40  106 1    
    80   41  107 1    
    81   41  108 1    
    82   41  109 1    
    83   42   43 2    
    84   42   44 am   BACKBONE|DICT|INTERRES
    85   44   45 1    
    86   44  110 1    
    87   45   46 1    
    88   45   47 1    
    89   45  111 1    
    90   46  112 1    
    91   46  113 1    
    92   46  114 1    
    93   47   48 2    
    94   47   49 am   BACKBONE|DICT|INTERRES
    95   49   50 1    
    96   49  115 1    
    97   50   51 1    
    98   50   52 1    
    99   50  116 1    
   100   51  117 1    
   101   51  118 1    
   102   51  119 1    
   103   52   53 2    
   104   52   54 am   BACKBONE|DICT|INTERRES
   105   54   55 1    
   106   54  120 1    
   107   55   56 1    
   108   55   57 1    
   109   55  121 1    
   110   56  122 1    
   111   56  123 1    
   112   56  124 1    
   113   57   58 2    
   114   57   59 am   BACKBONE|DICT|INTERRES
   115   59   60 1    
   116   59  125 1    
   117   60   61 1    
   118   60   62 1    
   119   60  126 1    
   120   61  127 1    
   121   61  128 1    
   122   61  129 1    
   123   62   63 2    
   124   62   64 am   BACKBONE|DICT|INTERRES
   125   64   65 1    
   126   64  130 1    
   127   65   66 1    
   128   65   69 1    
   129   65  131 1    
   130   66   67 am   BACKBONE|DICT|INTERRES
   131   66   68 2    
   132   67  132 1    
   133   67  133 1    
   134   69   70 1    
   135   69  134 1    
   136   69  135 1    
   137   70   71 1    
   138   71  136 1    
   139   71  137 1    
@<TRIPOS>SUBSTRUCTURE
     1 UNK         1 GROUP             0       ****    0 ROOT    
