@<TRIPOS>MOLECULE
3R137
137   139    1
SMALL
USER_CHARGES


@<TRIPOS>ATOM
      1 CA         30.0577   -5.3832   -0.9009 C.3       0 UNK        -0.2020 
      2 C          28.8213   -4.8849   -0.1679 C.2       0 UNK         0.4855 
      3 O          28.0989   -5.6849    0.4264 O.2       0 UNK        -0.5197 
      4 N          28.5792   -3.5677   -0.1924 N.am      1 UNK        -0.4892 
      5 CA         27.4835   -2.9072    0.5277 C.3       1 UNK         0.0835 
      6 C6         27.7998   -1.4076    0.7857 C.3       12 UNK        -0.0855 
      7 S7         27.5403   -0.2740   -0.6298 S.3       12 UNK        -0.2931 
      8 C8         29.2333    0.1983   -1.1266 C.3       12 UNK         0.0378 
      9 C9         29.9093   -0.6848   -2.1800 C.ar      12 UNK        -0.0802 
     10 C10        31.2051   -0.3409   -2.5755 C.ar      12 UNK        -0.0944 
     11 C11        31.8826   -1.0851   -3.5438 C.ar      12 UNK        -0.0787 
     12 C12        31.2700   -2.2081   -4.1040 C.ar      12 UNK        -0.0862 
     13 C13        29.9816   -2.5792   -3.7130 C.ar      12 UNK        -0.0733 
     14 C14        29.2958   -1.7975   -2.7754 C.ar      12 UNK        -0.0832 
     15 C15        29.3634   -3.8612   -4.2559 C.3       12 UNK         0.0240 
     16 S16        27.8499   -3.5797   -5.2136 S.3       12 UNK        -0.2522 
     17 C17        28.4881   -3.0518   -6.8385 C.3       12 UNK        -0.0967 
     18 CA         27.6935   -1.8773   -7.4678 C.3       5 UNK         0.0660 
     19 N          26.2436   -2.0210   -7.2934 N.am      5 UNK        -0.4015 
     20 C          25.3113   -1.3147   -7.9428 C.2       4 UNK         0.4946 
     21 O          25.5640   -0.4566   -8.7875 O.2       4 UNK        -0.5353 
     22 CA         23.8496   -1.5954   -7.5602 C.3       4 UNK         0.0277 
     23 CB         23.3943   -2.9650   -8.0909 C.3       4 UNK        -0.1981 
     24 N          23.5948   -1.5112   -6.1178 N.am      4 UNK        -0.4209 
     25 C          23.7439   -0.3985   -5.3842 C.2       3 UNK         0.4942 
     26 O          24.1915    0.6574   -5.8272 O.2       3 UNK        -0.5208 
     27 CA         23.3108   -0.4573   -3.9099 C.3       3 UNK         0.0250 
     28 CB         21.8277   -0.0768   -3.7737 C.3       3 UNK        -0.1990 
     29 N          23.5466   -1.7489   -3.2578 N.am      3 UNK        -0.4232 
     30 C          24.7640   -2.2471   -3.0088 C.2       2 UNK         0.4993 
     31 O          25.8067   -1.7217   -3.4036 O.2       2 UNK        -0.5286 
     32 CA         24.8224   -3.5493   -2.1940 C.3       2 UNK         0.0209 
     33 CB         24.8255   -4.7798   -3.1150 C.3       2 UNK        -0.1931 
     34 N          26.0338   -3.5519   -1.3728 N.am      2 UNK        -0.4546 
     35 C          26.0865   -3.1211   -0.1044 C.2       1 UNK         0.5154 
     36 O          25.0838   -2.8694    0.5673 O.2       1 UNK        -0.5181 
     37 C          28.2132   -0.5051   -6.9999 C.2       5 UNK         0.5014 
     38 O          29.1201    0.0380   -7.6362 O.2       5 UNK        -0.5248 
     39 N          27.6088    0.0439   -5.9364 N.am      6 UNK        -0.4434 
     40 CA         27.8790    1.3907   -5.4377 C.3       6 UNK         0.0363 
     41 CB         27.1970    1.5810   -4.0750 C.3       6 UNK        -0.1936 
     42 C          27.4342    2.4742   -6.4342 C.2       6 UNK         0.5081 
     43 O          28.2227    3.3665   -6.7444 O.2       6 UNK        -0.5248 
     44 N          26.1972    2.3631   -6.9419 N.am      7 UNK        -0.4718 
     45 CA         25.6116    3.2751   -7.9300 C.3       7 UNK         0.0273 
     46 CB         24.1125    2.9751   -8.0872 C.3       7 UNK        -0.1935 
     47 C          26.3176    3.2230   -9.2939 C.2       7 UNK         0.5018 
     48 O          26.5183    4.2706   -9.9095 O.2       7 UNK        -0.5186 
     49 N          26.7037    2.0156   -9.7297 N.am      8 UNK        -0.4240 
     50 CA         27.4851    1.7832  -10.9477 C.3       8 UNK         0.0235 
     51 CB         27.4178    0.2906  -11.3117 C.3       8 UNK        -0.2000 
     52 C          28.9544    2.2299  -10.8352 C.2       8 UNK         0.4941 
     53 O          29.6086    2.3659  -11.8699 O.2       8 UNK        -0.5273 
     54 N          29.4473    2.4209   -9.6004 N.am      9 UNK        -0.4262 
     55 CA         30.8370    2.7048   -9.2264 C.3       9 UNK         0.0264 
     56 CB         31.2719    4.1018   -9.7172 C.3       9 UNK        -0.1955 
     57 C          31.7839    1.5765   -9.6759 C.2       9 UNK         0.5031 
     58 O          32.8253    1.8356  -10.2825 O.2       9 UNK        -0.5390 
     59 N          31.3933    0.3315   -9.3703 N.am      10 UNK        -0.4204 
     60 CA         32.0828   -0.8986   -9.7776 C.3       10 UNK         0.0237 
     61 CB         31.0926   -2.0707   -9.6699 C.3       10 UNK        -0.1985 
     62 C          33.3777   -1.1957   -8.9923 C.2       10 UNK         0.4970 
     63 O          34.0076   -2.2239   -9.2434 O.2       10 UNK        -0.4914 
     64 N          33.7411   -0.3179   -8.0507 N.am      11 UNK        -0.4285 
     65 CA         34.8948   -0.4345   -7.1467 C.3       11 UNK         0.1007 
     66 C          36.2889   -0.3604   -7.8348 C.2       11 UNK         0.5703 
     67 N          36.3965    0.1220   -9.0675 N.am      11 UNK        -0.7361 
     68 O          37.2892   -0.7498   -7.2368 O.2       11 UNK        -0.4986 
     69 C69        34.8107    0.5879   -5.9792 C.3       12 UNK        -0.0947 
     70 S70        33.1600    0.6744   -5.2080 S.3       12 UNK        -0.2240 
     71 C71        33.2725   -0.6682   -3.9916 C.3       12 UNK         0.0194 
     72 H72        30.7310   -5.8778   -0.2013 H         1 UNK         0.0906 
     73 H73        29.7770   -6.1055   -1.6669 H         1 UNK         0.0906 
     74 H74        30.6068   -4.5714   -1.3780 H         1 UNK         0.0906 
     75 H75        29.2093   -2.9511   -0.6871 H         1 UNK         0.3140 
     76 H76        27.4279   -3.3827    1.5101 H         1 UNK         0.1085 
     77 H77        27.1586   -1.0477    1.5925 H         1 UNK         0.0836 
     78 H78        28.8160   -1.2992    1.1675 H         1 UNK         0.0836 
     79 H79        29.1818    1.2123   -1.5260 H         1 UNK         0.0731 
     80 H80        29.8673    0.2582   -0.2410 H         1 UNK         0.0731 
     81 H81        31.6862    0.5254   -2.1415 H         1 UNK         0.1312 
     82 H82        31.8017   -2.7972   -4.8388 H         1 UNK         0.1406 
     83 H83        28.2826   -2.0679   -2.5178 H         1 UNK         0.1631 
     84 H84        29.1071   -4.5075   -3.4179 H         1 UNK         0.0717 
     85 H85        30.0762   -4.4224   -4.8622 H         1 UNK         0.0717 
     86 H86        29.5503   -2.8139   -6.7573 H         1 UNK         0.0934 
     87 H87        28.4338   -3.9168   -7.5012 H         1 UNK         0.0934 
     88 H88        27.8804   -1.9100   -8.5434 H         1 UNK         0.0739 
     89 H89        25.9557   -2.6814   -6.5852 H         1 UNK         0.3093 
     90 H90        23.2390   -0.8292   -8.0431 H         1 UNK         0.0818 
     91 H91        22.3260   -3.1149   -7.9342 H         1 UNK         0.0819 
     92 H92        23.5755   -3.0469   -9.1637 H         1 UNK         0.0819 
     93 H93        23.9225   -3.7877   -7.6074 H         1 UNK         0.0819 
     94 H94        23.2230   -2.3340   -5.6667 H         1 UNK         0.3041 
     95 H95        23.8997    0.2913   -3.3748 H         1 UNK         0.0784 
     96 H96        21.6307    0.8937   -4.2319 H         1 UNK         0.0793 
     97 H97        21.1759   -0.8043   -4.2593 H         1 UNK         0.0793 
     98 H98        21.5306   -0.0037   -2.7273 H         1 UNK         0.0793 
     99 H99        22.7328   -2.2406   -2.9165 H         1 UNK         0.3024 
    100 H100       23.9388   -3.6031   -1.5537 H         1 UNK         0.1171 
    101 H101       23.9363   -4.8006   -3.7462 H         1 UNK         0.0786 
    102 H102       24.8324   -5.7035   -2.5360 H         1 UNK         0.0786 
    103 H103       25.6928   -4.7957   -3.7730 H         1 UNK         0.0786 
    104 H104       26.9040   -3.6920   -1.8629 H         1 UNK         0.2977 
    105 H105       26.8925   -0.4856   -5.4567 H         1 UNK         0.3127 
    106 H106       28.9583    1.4808   -5.2940 H         1 UNK         0.0770 
    107 H107       26.1100    1.5647   -4.1540 H         1 UNK         0.0814 
    108 H108       27.4794    2.5338   -3.6263 H         1 UNK         0.0814 
    109 H109       27.4856    0.7927   -3.3819 H         1 UNK         0.0814 
    110 H110       25.5918    1.6162   -6.6051 H         1 UNK         0.2983 
    111 H111       25.7172    4.2918   -7.5455 H         1 UNK         0.0947 
    112 H112       23.6516    3.6466   -8.8128 H         1 UNK         0.0806 
    113 H113       23.5824    3.1038   -7.1434 H         1 UNK         0.0806 
    114 H114       23.9404    1.9534   -8.4291 H         1 UNK         0.0806 
    115 H115       26.4231    1.1910   -9.2019 H         1 UNK         0.3000 
    116 H116       27.0304    2.3556  -11.7590 H         1 UNK         0.0850 
    117 H117       27.9594    0.0865  -12.2363 H         1 UNK         0.0810 
    118 H118       26.3883   -0.0358  -11.4607 H         1 UNK         0.0810 
    119 H119       27.8572   -0.3320  -10.5315 H         1 UNK         0.0810 
    120 H120       28.8191    2.2687   -8.8213 H         1 UNK         0.3040 
    121 H121       30.8631    2.7142   -8.1354 H         1 UNK         0.0766 
    122 H122       32.2644    4.3541   -9.3420 H         1 UNK         0.0812 
    123 H123       30.5867    4.8741   -9.3676 H         1 UNK         0.0812 
    124 H124       31.3134    4.1569  -10.8054 H         1 UNK         0.0812 
    125 H125       30.5433    0.2176   -8.8176 H         1 UNK         0.3205 
    126 H126       32.3672   -0.7928  -10.8266 H         1 UNK         0.0754 
    127 H127       31.5301   -2.9938  -10.0527 H         1 UNK         0.0769 
    128 H128       30.1858   -1.8811  -10.2447 H         1 UNK         0.0769 
    129 H129       30.8045   -2.2510   -8.6352 H         1 UNK         0.0769 
    130 H130       33.1606    0.4942   -7.9099 H         1 UNK         0.2981 
    131 H131       34.8356   -1.4325   -6.7089 H         1 UNK         0.0541 
    132 H132       35.5795    0.4483   -9.5597 H         1 UNK         0.3459 
    133 H133       37.3029    0.1636   -9.5058 H         1 UNK         0.3459 
    134 H134       35.0490    1.5906   -6.3392 H         1 UNK         0.0612 
    135 H135       35.5507    0.3578   -5.2102 H         1 UNK         0.0612 
    136 H136       33.8648   -0.3378   -3.1370 H         1 UNK         0.0624 
    137 H137       33.7989   -1.5186   -4.4276 H         1 UNK         0.0624 
@<TRIPOS>BOND
     1    1    2 1    
     2    1   72 1    
     3    1   73 1    
     4    1   74 1    
     5    2    3 2    
     6    2    4 am   BACKBONE|DICT|INTERRES
     7    4    5 1    
     8    4   75 1    
     9    5    6 1    
    10    5   35 1    
    11    5   76 1    
    12    6    7 1    
    13    6   77 1    
    14    6   78 1    
    15    7    8 1    
    16    8    9 1    
    17    8   79 1    
    18    8   80 1    
    19    9   10 ar   
    20    9   14 ar   
    21   10   11 ar   
    22   10   81 1    
    23   11   12 ar   
    24   11   71 1    
    25   12   13 ar   
    26   12   82 1    
    27   13   14 ar   
    28   13   15 1    
    29   14   83 1    
    30   15   16 1    
    31   15   84 1    
    32   15   85 1    
    33   16   17 1    
    34   17   18 1    
    35   17   86 1    
    36   17   87 1    
    37   18   19 1    
    38   18   37 1    
    39   18   88 1    
    40   19   20 am   BACKBONE|DICT|INTERRES
    41   19   89 1    
    42   20   21 2    
    43   20   22 1    
    44   22   23 1    
    45   22   24 1    
    46   22   90 1    
    47   23   91 1    
    48   23   92 1    
    49   23   93 1    
    50   24   25 am   BACKBONE|DICT|INTERRES
    51   24   94 1    
    52   25   26 2    
    53   25   27 1    
    54   27   28 1    
    55   27   29 1    
    56   27   95 1    
    57   28   96 1    
    58   28   97 1    
    59   28   98 1    
    60   29   30 am   BACKBONE|DICT|INTERRES
    61   29   99 1    
    62   30   31 2    
    63   30   32 1    
    64   32   33 1    
    65   32   34 1    
    66   32  100 1    
    67   33  101 1    
    68   33  102 1    
    69   33  103 1    
    70   34   35 am   BACKBONE|DICT|INTERRES
    71   34  104 1    
    72   35   36 2    
    73   37   38 2    
    74   37   39 am   BACKBONE|DICT|INTERRES
    75   39   40 1    
    76   39  105 1    
    77   40   41 1    
    78   40   42 1    
    79   40  106 1    
    80   41  107 1    
    81   41  108 1    
    82   41  109 1    
    83   42   43 2    
    84   42   44 am   BACKBONE|DICT|INTERRES
    85   44   45 1    
    86   44  110 1    
    87   45   46 1    
    88   45   47 1    
    89   45  111 1    
    90   46  112 1    
    91   46  113 1    
    92   46  114 1    
    93   47   48 2    
    94   47   49 am   BACKBONE|DICT|INTERRES
    95   49   50 1    
    96   49  115 1    
    97   50   51 1    
    98   50   52 1    
    99   50  116 1    
   100   51  117 1    
   101   51  118 1    
   102   51  119 1    
   103   52   53 2    
   104   52   54 am   BACKBONE|DICT|INTERRES
   105   54   55 1    
   106   54  120 1    
   107   55   56 1    
   108   55   57 1    
   109   55  121 1    
   110   56  122 1    
   111   56  123 1    
   112   56  124 1    
   113   57   58 2    
   114   57   59 am   BACKBONE|DICT|INTERRES
   115   59   60 1    
   116   59  125 1    
   117   60   61 1    
   118   60   62 1    
   119   60  126 1    
   120   61  127 1    
   121   61  128 1    
   122   61  129 1    
   123   62   63 2    
   124   62   64 am   BACKBONE|DICT|INTERRES
   125   64   65 1    
   126   64  130 1    
   127   65   66 1    
   128   65   69 1    
   129   65  131 1    
   130   66   67 am   BACKBONE|DICT|INTERRES
   131   66   68 2    
   132   67  132 1    
   133   67  133 1    
   134   69   70 1    
   135   69  134 1    
   136   69  135 1    
   137   70   71 1    
   138   71  136 1    
   139   71  137 1    
@<TRIPOS>SUBSTRUCTURE
     1 UNK         1 GROUP             0       ****    0 ROOT    
