@<TRIPOS>MOLECULE
3R137
137   139    1
SMALL
USER_CHARGES


@<TRIPOS>ATOM
      1 CA         22.0225   -4.8089   -3.6067 C.3       0 UNK        -0.2020 
      2 C          23.5027   -4.4893   -3.4694 C.2       0 UNK         0.4855 
      3 O          24.0493   -3.7679   -4.3041 O.2       0 UNK        -0.5197 
      4 N          24.1511   -5.0040   -2.4135 N.am      1 UNK        -0.4892 
      5 CA         25.5801   -4.8292   -2.1102 C.3       1 UNK         0.0835 
      6 C6         26.4787   -5.5742   -3.1339 C.3       12 UNK        -0.0855 
      7 S7         28.1160   -6.0284   -2.4658 S.3       12 UNK        -0.2931 
      8 C8         29.2382   -5.5966   -3.8479 C.3       12 UNK         0.0378 
      9 C9         30.1600   -4.3924   -3.6267 C.ar      12 UNK        -0.0802 
     10 C10        31.1000   -4.0966   -4.6200 C.ar      12 UNK        -0.0944 
     11 C11        32.0103   -3.0455   -4.4657 C.ar      12 UNK        -0.0787 
     12 C12        31.9831   -2.2867   -3.2921 C.ar      12 UNK        -0.0862 
     13 C13        31.0526   -2.5644   -2.2867 C.ar      12 UNK        -0.0733 
     14 C14        30.1360   -3.6062   -2.4660 C.ar      12 UNK        -0.0832 
     15 C15        31.0696   -1.7742   -0.9823 C.3       12 UNK         0.0240 
     16 S16        30.6347   -0.0191   -1.2047 S.3       12 UNK        -0.2522 
     17 C17        28.9574   -0.1472   -1.9028 C.3       12 UNK        -0.0967 
     18 CA         28.9482    0.1653   -3.4213 C.3       5 UNK         0.0660 
     19 N          27.9769   -0.6594   -4.1443 N.am      5 UNK        -0.4015 
     20 C          27.8503   -0.6951   -5.4786 C.2       4 UNK         0.4946 
     21 O          28.5809   -0.0837   -6.2534 O.2       4 UNK        -0.5353 
     22 CA         26.6794   -1.5130   -6.0437 C.3       4 UNK         0.0277 
     23 CB         27.0643   -2.9950   -6.1489 C.3       4 UNK        -0.1981 
     24 N          25.4578   -1.3530   -5.2506 N.am      4 UNK        -0.4209 
     25 C          24.7964   -0.1904   -5.1392 C.2       3 UNK         0.4942 
     26 O          25.1007    0.8317   -5.7539 O.2       3 UNK        -0.5208 
     27 CA         23.6473   -0.1339   -4.1207 C.3       3 UNK         0.0250 
     28 CB         22.3545   -0.7305   -4.7001 C.3       3 UNK        -0.1990 
     29 N          23.9985   -0.7990   -2.8635 N.am      3 UNK        -0.4232 
     30 C          24.9300   -0.3463   -2.0107 C.2       2 UNK         0.4993 
     31 O          25.5497    0.7041   -2.1723 O.2       2 UNK        -0.5286 
     32 CA         25.2546   -1.2238   -0.7899 C.3       2 UNK         0.0209 
     33 CB         24.3458   -0.8565    0.3936 C.3       2 UNK        -0.1931 
     34 N          25.1513   -2.6611   -1.0594 N.am      2 UNK        -0.4546 
     35 C          25.9288   -3.3341   -1.9211 C.2       1 UNK         0.5154 
     36 O          26.8218   -2.8002   -2.5808 O.2       1 UNK        -0.5181 
     37 C          28.7648    1.6763   -3.6867 C.2       5 UNK         0.5014 
     38 O          29.7581    2.4004   -3.7699 O.2       5 UNK        -0.5248 
     39 N          27.5076    2.1256   -3.8229 N.am      6 UNK        -0.4434 
     40 CA         27.1577    3.4901   -4.2134 C.3       6 UNK         0.0363 
     41 CB         25.6668    3.7571   -3.9486 C.3       6 UNK        -0.1936 
     42 C          27.5368    3.7921   -5.6734 C.2       6 UNK         0.5081 
     43 O          28.2015    4.8014   -5.9130 O.2       6 UNK        -0.5248 
     44 N          27.1375    2.9243   -6.6153 N.am      7 UNK        -0.4718 
     45 CA         27.4876    3.0430   -8.0318 C.3       7 UNK         0.0273 
     46 CB         26.6977    4.1911   -8.6962 C.3       7 UNK        -0.1935 
     47 C          27.2428    1.7236   -8.7777 C.2       7 UNK         0.5018 
     48 O          26.0874    1.3244   -8.9363 O.2       7 UNK        -0.5186 
     49 N          28.3192    1.1164   -9.2885 N.am      8 UNK        -0.4240 
     50 CA         28.3022   -0.0044  -10.2266 C.3       8 UNK         0.0235 
     51 CB         27.9494   -1.3321   -9.5287 C.3       8 UNK        -0.2000 
     52 C          29.6548   -0.0539  -10.9439 C.2       8 UNK         0.4941 
     53 O          30.5221   -0.8480  -10.5716 O.2       8 UNK        -0.5273 
     54 N          29.8127    0.8211  -11.9483 N.am      9 UNK        -0.4262 
     55 CA         30.9898    0.9802  -12.8104 C.3       9 UNK         0.0264 
     56 CB         31.1517   -0.2394  -13.7474 C.3       9 UNK        -0.1955 
     57 C          32.2552    1.3134  -11.9990 C.2       9 UNK         0.5031 
     58 O          32.4365    2.4722  -11.6223 O.2       9 UNK        -0.5390 
     59 N          33.0969    0.3032  -11.7431 N.am      10 UNK        -0.4204 
     60 CA         34.2993    0.4060  -10.9157 C.3       10 UNK         0.0237 
     61 CB         35.1776   -0.8358  -11.1406 C.3       10 UNK        -0.1985 
     62 C          33.9913    0.5831   -9.4180 C.2       10 UNK         0.4970 
     63 O          34.7887    1.2109   -8.7198 O.2       10 UNK        -0.4914 
     64 N          32.8640    0.0323   -8.9499 N.am      11 UNK        -0.4285 
     65 CA         32.3847    0.1882   -7.5715 C.3       11 UNK         0.1007 
     66 C          31.6075    1.5202   -7.4073 C.2       11 UNK         0.5703 
     67 N          31.7471    2.1810   -6.2675 N.am      11 UNK        -0.7361 
     68 O          30.8631    1.9450   -8.2903 O.2       11 UNK        -0.4986 
     69 C69        31.5210   -1.0144   -7.1174 C.3       12 UNK        -0.0947 
     70 S70        32.3979   -2.6089   -7.2154 S.3       12 UNK        -0.2240 
     71 C71        33.0705   -2.7688   -5.5283 C.3       12 UNK         0.0194 
     72 H72        21.6687   -5.4608   -2.8083 H         1 UNK         0.0906 
     73 H73        21.4363   -3.8908   -3.5813 H         1 UNK         0.0906 
     74 H74        21.8351   -5.3057   -4.5582 H         1 UNK         0.0906 
     75 H75        23.6391   -5.5801   -1.7585 H         1 UNK         0.3140 
     76 H76        25.7338   -5.2962   -1.1358 H         1 UNK         0.1085 
     77 H77        26.5655   -5.0064   -4.0576 H         1 UNK         0.0836 
     78 H78        26.0010   -6.5117   -3.4229 H         1 UNK         0.0836 
     79 H79        28.6692   -5.4483   -4.7659 H         1 UNK         0.0731 
     80 H80        29.8675   -6.4688   -4.0307 H         1 UNK         0.0731 
     81 H81        31.1371   -4.7014   -5.5160 H         1 UNK         0.1312 
     82 H82        32.6967   -1.4868   -3.1483 H         1 UNK         0.1406 
     83 H83        29.4204   -3.8116   -1.6832 H         1 UNK         0.1631 
     84 H84        32.0672   -1.8343   -0.5451 H         1 UNK         0.0717 
     85 H85        30.3912   -2.2154   -0.2503 H         1 UNK         0.0717 
     86 H86        28.5926   -1.1560   -1.7124 H         1 UNK         0.0934 
     87 H87        28.2843    0.5088   -1.3468 H         1 UNK         0.0934 
     88 H88        29.9182   -0.1107   -3.8412 H         1 UNK         0.0739 
     89 H89        27.3877   -1.2713   -3.5855 H         1 UNK         0.3093 
     90 H90        26.4591   -1.1374   -7.0431 H         1 UNK         0.0818 
     91 H91        27.4579   -3.3629   -5.2031 H         1 UNK         0.0819 
     92 H92        26.2158   -3.6165   -6.4353 H         1 UNK         0.0819 
     93 H93        27.8464   -3.1393   -6.8948 H         1 UNK         0.0819 
     94 H94        25.1179   -2.1676   -4.7453 H         1 UNK         0.3041 
     95 H95        23.4577    0.9184   -3.8969 H         1 UNK         0.0784 
     96 H96        22.0539   -0.1951   -5.6018 H         1 UNK         0.0793 
     97 H97        22.4719   -1.7789   -4.9729 H         1 UNK         0.0793 
     98 H98        21.5300   -0.6572   -3.9910 H         1 UNK         0.0793 
     99 H99        23.5652   -1.6912   -2.6777 H         1 UNK         0.3024 
    100 H100       26.2875   -1.0123   -0.5052 H         1 UNK         0.1171 
    101 H101       24.6253   -1.4042    1.2939 H         1 UNK         0.0786 
    102 H102       24.4216    0.2066    0.6274 H         1 UNK         0.0786 
    103 H103       23.2973   -1.0695    0.1815 H         1 UNK         0.0786 
    104 H104       24.4228   -3.1656   -0.5746 H         1 UNK         0.2977 
    105 H105       26.7394    1.4848   -3.6525 H         1 UNK         0.3127 
    106 H106       27.7294    4.1695   -3.5773 H         1 UNK         0.0770 
    107 H107       25.0218    3.1262   -4.5588 H         1 UNK         0.0814 
    108 H108       25.4136    4.7934   -4.1753 H         1 UNK         0.0814 
    109 H109       25.4126    3.5812   -2.9031 H         1 UNK         0.0814 
    110 H110       26.5845    2.1102   -6.3552 H         1 UNK         0.2983 
    111 H111       28.5515    3.2807   -8.0988 H         1 UNK         0.0947 
    112 H112       26.9055    4.2397   -9.7659 H         1 UNK         0.0806 
    113 H113       26.9616    5.1613   -8.2762 H         1 UNK         0.0806 
    114 H114       25.6217    4.0571   -8.5784 H         1 UNK         0.0806 
    115 H115       29.2441    1.4746   -9.0496 H         1 UNK         0.3000 
    116 H116       27.5392    0.1843  -10.9850 H         1 UNK         0.0850 
    117 H117       28.1136   -2.1814  -10.1930 H         1 UNK         0.0810 
    118 H118       26.8994   -1.3550   -9.2415 H         1 UNK         0.0810 
    119 H119       28.5532   -1.4929   -8.6371 H         1 UNK         0.0810 
    120 H120       29.0571    1.4671  -12.1320 H         1 UNK         0.3040 
    121 H121       30.7967    1.8494  -13.4414 H         1 UNK         0.0766 
    122 H122       30.2889   -0.3387  -14.4062 H         1 UNK         0.0812 
    123 H123       31.2529   -1.1785  -13.2025 H         1 UNK         0.0812 
    124 H124       32.0288   -0.1303  -14.3871 H         1 UNK         0.0812 
    125 H125       32.8369   -0.6195  -12.0611 H         1 UNK         0.3205 
    126 H126       34.8605    1.2844  -11.2420 H         1 UNK         0.0754 
    127 H127       36.0978   -0.7729  -10.5579 H         1 UNK         0.0769 
    128 H128       35.4652   -0.9351  -12.1875 H         1 UNK         0.0769 
    129 H129       34.6658   -1.7521  -10.8428 H         1 UNK         0.0769 
    130 H130       32.2133   -0.4089   -9.5923 H         1 UNK         0.2981 
    131 H131       33.2531    0.2252   -6.9104 H         1 UNK         0.0541 
    132 H132       32.3312    1.8308   -5.5258 H         1 UNK         0.3459 
    133 H133       31.2127    3.0227   -6.1217 H         1 UNK         0.3459 
    134 H134       30.6289   -1.0900   -7.7388 H         1 UNK         0.0612 
    135 H135       31.1676   -0.8692   -6.0952 H         1 UNK         0.0612 
    136 H136       33.7879   -3.5902   -5.5201 H         1 UNK         0.0624 
    137 H137       33.6353   -1.8659   -5.2912 H         1 UNK         0.0624 
@<TRIPOS>BOND
     1    1    2 1    
     2    1   72 1    
     3    1   73 1    
     4    1   74 1    
     5    2    3 2    
     6    2    4 am   BACKBONE|DICT|INTERRES
     7    4    5 1    
     8    4   75 1    
     9    5    6 1    
    10    5   35 1    
    11    5   76 1    
    12    6    7 1    
    13    6   77 1    
    14    6   78 1    
    15    7    8 1    
    16    8    9 1    
    17    8   79 1    
    18    8   80 1    
    19    9   10 ar   
    20    9   14 ar   
    21   10   11 ar   
    22   10   81 1    
    23   11   12 ar   
    24   11   71 1    
    25   12   13 ar   
    26   12   82 1    
    27   13   14 ar   
    28   13   15 1    
    29   14   83 1    
    30   15   16 1    
    31   15   84 1    
    32   15   85 1    
    33   16   17 1    
    34   17   18 1    
    35   17   86 1    
    36   17   87 1    
    37   18   19 1    
    38   18   37 1    
    39   18   88 1    
    40   19   20 am   BACKBONE|DICT|INTERRES
    41   19   89 1    
    42   20   21 2    
    43   20   22 1    
    44   22   23 1    
    45   22   24 1    
    46   22   90 1    
    47   23   91 1    
    48   23   92 1    
    49   23   93 1    
    50   24   25 am   BACKBONE|DICT|INTERRES
    51   24   94 1    
    52   25   26 2    
    53   25   27 1    
    54   27   28 1    
    55   27   29 1    
    56   27   95 1    
    57   28   96 1    
    58   28   97 1    
    59   28   98 1    
    60   29   30 am   BACKBONE|DICT|INTERRES
    61   29   99 1    
    62   30   31 2    
    63   30   32 1    
    64   32   33 1    
    65   32   34 1    
    66   32  100 1    
    67   33  101 1    
    68   33  102 1    
    69   33  103 1    
    70   34   35 am   BACKBONE|DICT|INTERRES
    71   34  104 1    
    72   35   36 2    
    73   37   38 2    
    74   37   39 am   BACKBONE|DICT|INTERRES
    75   39   40 1    
    76   39  105 1    
    77   40   41 1    
    78   40   42 1    
    79   40  106 1    
    80   41  107 1    
    81   41  108 1    
    82   41  109 1    
    83   42   43 2    
    84   42   44 am   BACKBONE|DICT|INTERRES
    85   44   45 1    
    86   44  110 1    
    87   45   46 1    
    88   45   47 1    
    89   45  111 1    
    90   46  112 1    
    91   46  113 1    
    92   46  114 1    
    93   47   48 2    
    94   47   49 am   BACKBONE|DICT|INTERRES
    95   49   50 1    
    96   49  115 1    
    97   50   51 1    
    98   50   52 1    
    99   50  116 1    
   100   51  117 1    
   101   51  118 1    
   102   51  119 1    
   103   52   53 2    
   104   52   54 am   BACKBONE|DICT|INTERRES
   105   54   55 1    
   106   54  120 1    
   107   55   56 1    
   108   55   57 1    
   109   55  121 1    
   110   56  122 1    
   111   56  123 1    
   112   56  124 1    
   113   57   58 2    
   114   57   59 am   BACKBONE|DICT|INTERRES
   115   59   60 1    
   116   59  125 1    
   117   60   61 1    
   118   60   62 1    
   119   60  126 1    
   120   61  127 1    
   121   61  128 1    
   122   61  129 1    
   123   62   63 2    
   124   62   64 am   BACKBONE|DICT|INTERRES
   125   64   65 1    
   126   64  130 1    
   127   65   66 1    
   128   65   69 1    
   129   65  131 1    
   130   66   67 am   BACKBONE|DICT|INTERRES
   131   66   68 2    
   132   67  132 1    
   133   67  133 1    
   134   69   70 1    
   135   69  134 1    
   136   69  135 1    
   137   70   71 1    
   138   71  136 1    
   139   71  137 1    
@<TRIPOS>SUBSTRUCTURE
     1 UNK         1 GROUP             0       ****    0 ROOT    
