@<TRIPOS>MOLECULE
3R137
137   139    1
SMALL
USER_CHARGES


@<TRIPOS>ATOM
      1 CA         23.9938   -6.4074   -3.9862 C.3       0 UNK        -0.2020 
      2 C          25.1073   -5.4340   -3.6321 C.2       0 UNK         0.4855 
      3 O          25.5032   -4.6320   -4.4764 O.2       0 UNK        -0.5197 
      4 N          25.5997   -5.4909   -2.3863 N.am      1 UNK        -0.4892 
      5 CA         26.6869   -4.6703   -1.8326 C.3       1 UNK         0.0835 
      6 C6         28.0785   -5.0658   -2.3992 C.3       12 UNK        -0.0855 
      7 S7         29.3888   -4.8891   -1.1445 S.3       12 UNK        -0.2931 
      8 C8         30.8195   -4.3960   -2.1637 C.3       12 UNK         0.0378 
      9 C9         30.8754   -2.9100   -2.5162 C.ar      12 UNK        -0.0802 
     10 C10        31.3915   -2.5221   -3.7569 C.ar      12 UNK        -0.0944 
     11 C11        31.5566   -1.1698   -4.0685 C.ar      12 UNK        -0.0787 
     12 C12        31.1952   -0.1979   -3.1338 C.ar      12 UNK        -0.0862 
     13 C13        30.6445   -0.5639   -1.9022 C.ar      12 UNK        -0.0733 
     14 C14        30.4982   -1.9218   -1.5969 C.ar      12 UNK        -0.0832 
     15 C15        30.2301    0.4961   -0.8838 C.3       12 UNK         0.0240 
     16 S16        29.2561    1.8685   -1.5984 S.3       12 UNK        -0.2522 
     17 C17        27.8841    0.9760   -2.4006 C.3       12 UNK        -0.0967 
     18 CA         27.9777    1.0385   -3.9502 C.3       5 UNK         0.0660 
     19 N          27.5375   -0.2065   -4.5797 N.am      5 UNK        -0.4015 
     20 C          27.6698   -0.5062   -5.8803 C.2       4 UNK         0.4946 
     21 O          28.2543    0.1993   -6.7047 O.2       4 UNK        -0.5353 
     22 CA         27.0012   -1.8051   -6.3547 C.3       4 UNK         0.0277 
     23 CB         27.9403   -2.9984   -6.1259 C.3       4 UNK        -0.1981 
     24 N          25.7112   -2.0491   -5.7015 N.am      4 UNK        -0.4209 
     25 C          24.6435   -1.2429   -5.8108 C.2       3 UNK         0.4942 
     26 O          24.6135   -0.2366   -6.5177 O.2       3 UNK        -0.5208 
     27 CA         23.4236   -1.5742   -4.9387 C.3       3 UNK         0.0250 
     28 CB         22.6329   -2.7609   -5.5124 C.3       3 UNK        -0.1990 
     29 N          23.7959   -1.8355   -3.5470 N.am      3 UNK        -0.4232 
     30 C          24.3203   -0.9194   -2.7189 C.2       2 UNK         0.4993 
     31 O          24.5166    0.2544   -3.0295 O.2       2 UNK        -0.5286 
     32 CA         24.7329   -1.3964   -1.3175 C.3       2 UNK         0.0209 
     33 CB         23.5548   -1.2775   -0.3378 C.3       2 UNK        -0.1931 
     34 N          25.2500   -2.7674   -1.3023 N.am      2 UNK        -0.4546 
     35 C          26.3684   -3.1615   -1.9287 C.2       1 UNK         0.5154 
     36 O          27.0719   -2.4015   -2.5975 O.2       1 UNK        -0.5181 
     37 C          27.2379    2.2652   -4.5201 C.2       5 UNK         0.5014 
     38 O          27.8879    3.2168   -4.9549 O.2       5 UNK        -0.5248 
     39 N          25.8974    2.2118   -4.5267 N.am      6 UNK        -0.4434 
     40 CA         25.0167    3.2718   -5.0238 C.3       6 UNK         0.0363 
     41 CB         23.5591    2.9386   -4.6679 C.3       6 UNK        -0.1936 
     42 C          25.1579    3.5242   -6.5331 C.2       6 UNK         0.5081 
     43 O          25.1698    4.6819   -6.9528 O.2       6 UNK        -0.5248 
     44 N          25.2714    2.4461   -7.3202 N.am      7 UNK        -0.4718 
     45 CA         25.4732    2.5040   -8.7700 C.3       7 UNK         0.0273 
     46 CB         25.1382    1.1326   -9.3793 C.3       7 UNK        -0.1935 
     47 C          26.8971    2.9217   -9.1754 C.2       7 UNK         0.5018 
     48 O          27.0793    3.3673  -10.3090 O.2       7 UNK        -0.5186 
     49 N          27.8694    2.7379   -8.2670 N.am      8 UNK        -0.4240 
     50 CA         29.3184    2.8464   -8.4749 C.3       8 UNK         0.0235 
     51 CB         29.7374    4.3045   -8.7572 C.3       8 UNK        -0.2000 
     52 C          29.7841    1.8538   -9.5557 C.2       8 UNK         0.4941 
     53 O          30.3856    2.2518  -10.5567 O.2       8 UNK        -0.5273 
     54 N          29.4363    0.5752   -9.3532 N.am      9 UNK        -0.4262 
     55 CA         29.5911   -0.5237  -10.3112 C.3       9 UNK         0.0264 
     56 CB         28.6816   -1.6872   -9.8769 C.3       9 UNK        -0.1955 
     57 C          31.0566   -0.9614  -10.5044 C.2       9 UNK         0.5031 
     58 O          31.4226   -2.0784  -10.1303 O.2       9 UNK        -0.5390 
     59 N          31.8706   -0.0602  -11.0707 N.am      10 UNK        -0.4204 
     60 CA         33.3033   -0.1550  -11.3903 C.3       10 UNK         0.0237 
     61 CB         33.5951   -1.3011  -12.3792 C.3       10 UNK        -0.1985 
     62 C          34.2150   -0.2335  -10.1540 C.2       10 UNK         0.4970 
     63 O          35.1586    0.5509  -10.0526 O.2       10 UNK        -0.4914 
     64 N          33.9029   -1.1546   -9.2363 N.am      11 UNK        -0.4285 
     65 CA         34.5567   -1.3575   -7.9360 C.3       11 UNK         0.1007 
     66 C          36.0284   -1.8716   -8.0027 C.2       11 UNK         0.5703 
     67 N          36.4819   -2.4189   -9.1246 N.am      11 UNK        -0.7361 
     68 O          36.7648   -1.8049   -7.0212 O.2       11 UNK        -0.4986 
     69 C69        34.3544   -0.1302   -6.9968 C.3       12 UNK        -0.0947 
     70 S70        33.9565   -0.6205   -5.2902 S.3       12 UNK        -0.2240 
     71 C71        32.1465   -0.7548   -5.4045 C.3       12 UNK         0.0194 
     72 H72        24.2689   -6.9834   -4.8693 H         1 UNK         0.0906 
     73 H73        23.7891   -7.1074   -3.1765 H         1 UNK         0.0906 
     74 H74        23.0754   -5.8645   -4.2068 H         1 UNK         0.0906 
     75 H75        25.2103   -6.1685   -1.7443 H         1 UNK         0.3140 
     76 H76        26.6873   -4.9012   -0.7656 H         1 UNK         0.1085 
     77 H77        28.3287   -4.5081   -3.3011 H         1 UNK         0.0836 
     78 H78        28.0770   -6.1147   -2.6997 H         1 UNK         0.0836 
     79 H79        30.8346   -5.0082   -3.0670 H         1 UNK         0.0731 
     80 H80        31.7288   -4.6429   -1.6144 H         1 UNK         0.0731 
     81 H81        31.6969   -3.2733   -4.4725 H         1 UNK         0.1312 
     82 H82        31.3372    0.8480   -3.3691 H         1 UNK         0.1406 
     83 H83        30.1036   -2.2108   -0.6328 H         1 UNK         0.1631 
     84 H84        31.1280    0.9072   -0.4210 H         1 UNK         0.0717 
     85 H85        29.6463    0.0465   -0.0789 H         1 UNK         0.0717 
     86 H86        27.9137   -0.0572   -2.0561 H         1 UNK         0.0934 
     87 H87        26.9361    1.3688   -2.0275 H         1 UNK         0.0934 
     88 H88        29.0254    1.1476   -4.2352 H         1 UNK         0.0739 
     89 H89        27.1121   -0.8979   -3.9699 H         1 UNK         0.3093 
     90 H90        26.8140   -1.7114   -7.4258 H         1 UNK         0.0818 
     91 H91        28.8939   -2.8538   -6.6347 H         1 UNK         0.0819 
     92 H92        27.5059   -3.9263   -6.4980 H         1 UNK         0.0819 
     93 H93        28.1597   -3.1299   -5.0674 H         1 UNK         0.0819 
     94 H94        25.6445   -2.8844   -5.1215 H         1 UNK         0.3041 
     95 H95        22.7681   -0.7004   -4.9450 H         1 UNK         0.0784 
     96 H96        22.3018   -2.5481   -6.5297 H         1 UNK         0.0793 
     97 H97        23.2312   -3.6709   -5.5522 H         1 UNK         0.0793 
     98 H98        21.7419   -2.9689   -4.9199 H         1 UNK         0.0793 
     99 H99        23.7048   -2.7844   -3.2166 H         1 UNK         0.3024 
    100 H100       25.5319   -0.7355   -0.9738 H         1 UNK         0.1171 
    101 H101       23.8580   -1.5248    0.6797 H         1 UNK         0.0786 
    102 H102       23.1659   -0.2583   -0.3188 H         1 UNK         0.0786 
    103 H103       22.7299   -1.9359   -0.6130 H         1 UNK         0.0786 
    104 H104       24.7105   -3.4547   -0.7953 H         1 UNK         0.2977 
    105 H105       25.4352    1.4020   -4.1136 H         1 UNK         0.3127 
    106 H106       25.2899    4.1951   -4.5087 H         1 UNK         0.0770 
    107 H107       23.2402    1.9978   -5.1188 H         1 UNK         0.0814 
    108 H108       22.8815    3.7177   -5.0196 H         1 UNK         0.0814 
    109 H109       23.4243    2.8535   -3.5895 H         1 UNK         0.0814 
    110 H110       25.1853    1.5188   -6.9072 H         1 UNK         0.2983 
    111 H111       24.7836    3.2421   -9.1856 H         1 UNK         0.0947 
    112 H112       25.2438    1.1484  -10.4649 H         1 UNK         0.0806 
    113 H113       24.1119    0.8395   -9.1572 H         1 UNK         0.0806 
    114 H114       25.7986    0.3525   -8.9979 H         1 UNK         0.0806 
    115 H115       27.5973    2.3377   -7.3774 H         1 UNK         0.3000 
    116 H116       29.7900    2.5389   -7.5399 H         1 UNK         0.0850 
    117 H117       30.8230    4.3909   -8.8168 H         1 UNK         0.0810 
    118 H118       29.4007    4.9720   -7.9640 H         1 UNK         0.0810 
    119 H119       29.3316    4.6720   -9.7001 H         1 UNK         0.0810 
    120 H120       28.9774    0.3507   -8.4723 H         1 UNK         0.3040 
    121 H121       29.2330   -0.1752  -11.2823 H         1 UNK         0.0766 
    122 H122       27.6377   -1.3780   -9.8252 H         1 UNK         0.0812 
    123 H123       28.9682   -2.0754   -8.8998 H         1 UNK         0.0812 
    124 H124       28.7386   -2.5144  -10.5857 H         1 UNK         0.0812 
    125 H125       31.4585    0.8613  -11.2123 H         1 UNK         0.3205 
    126 H126       33.5485    0.7797  -11.8974 H         1 UNK         0.0754 
    127 H127       34.6453   -1.3017  -12.6740 H         1 UNK         0.0769 
    128 H128       33.0042   -1.1967  -13.2893 H         1 UNK         0.0769 
    129 H129       33.3787   -2.2804  -11.9516 H         1 UNK         0.0769 
    130 H130       33.0897   -1.7365   -9.4281 H         1 UNK         0.2981 
    131 H131       34.0067   -2.1986   -7.5128 H         1 UNK         0.0541 
    132 H132       35.8870   -2.4908   -9.9340 H         1 UNK         0.3459 
    133 H133       37.4301   -2.7585   -9.1604 H         1 UNK         0.3459 
    134 H134       35.2364    0.5126   -6.9873 H         1 UNK         0.0612 
    135 H135       33.5417    0.5060   -7.3517 H         1 UNK         0.0612 
    136 H136       31.7250    0.2015   -5.7191 H         1 UNK         0.0624 
    137 H137       31.8800   -1.4794   -6.1757 H         1 UNK         0.0624 
@<TRIPOS>BOND
     1    1    2 1    
     2    1   72 1    
     3    1   73 1    
     4    1   74 1    
     5    2    3 2    
     6    2    4 am   BACKBONE|DICT|INTERRES
     7    4    5 1    
     8    4   75 1    
     9    5    6 1    
    10    5   35 1    
    11    5   76 1    
    12    6    7 1    
    13    6   77 1    
    14    6   78 1    
    15    7    8 1    
    16    8    9 1    
    17    8   79 1    
    18    8   80 1    
    19    9   10 ar   
    20    9   14 ar   
    21   10   11 ar   
    22   10   81 1    
    23   11   12 ar   
    24   11   71 1    
    25   12   13 ar   
    26   12   82 1    
    27   13   14 ar   
    28   13   15 1    
    29   14   83 1    
    30   15   16 1    
    31   15   84 1    
    32   15   85 1    
    33   16   17 1    
    34   17   18 1    
    35   17   86 1    
    36   17   87 1    
    37   18   19 1    
    38   18   37 1    
    39   18   88 1    
    40   19   20 am   BACKBONE|DICT|INTERRES
    41   19   89 1    
    42   20   21 2    
    43   20   22 1    
    44   22   23 1    
    45   22   24 1    
    46   22   90 1    
    47   23   91 1    
    48   23   92 1    
    49   23   93 1    
    50   24   25 am   BACKBONE|DICT|INTERRES
    51   24   94 1    
    52   25   26 2    
    53   25   27 1    
    54   27   28 1    
    55   27   29 1    
    56   27   95 1    
    57   28   96 1    
    58   28   97 1    
    59   28   98 1    
    60   29   30 am   BACKBONE|DICT|INTERRES
    61   29   99 1    
    62   30   31 2    
    63   30   32 1    
    64   32   33 1    
    65   32   34 1    
    66   32  100 1    
    67   33  101 1    
    68   33  102 1    
    69   33  103 1    
    70   34   35 am   BACKBONE|DICT|INTERRES
    71   34  104 1    
    72   35   36 2    
    73   37   38 2    
    74   37   39 am   BACKBONE|DICT|INTERRES
    75   39   40 1    
    76   39  105 1    
    77   40   41 1    
    78   40   42 1    
    79   40  106 1    
    80   41  107 1    
    81   41  108 1    
    82   41  109 1    
    83   42   43 2    
    84   42   44 am   BACKBONE|DICT|INTERRES
    85   44   45 1    
    86   44  110 1    
    87   45   46 1    
    88   45   47 1    
    89   45  111 1    
    90   46  112 1    
    91   46  113 1    
    92   46  114 1    
    93   47   48 2    
    94   47   49 am   BACKBONE|DICT|INTERRES
    95   49   50 1    
    96   49  115 1    
    97   50   51 1    
    98   50   52 1    
    99   50  116 1    
   100   51  117 1    
   101   51  118 1    
   102   51  119 1    
   103   52   53 2    
   104   52   54 am   BACKBONE|DICT|INTERRES
   105   54   55 1    
   106   54  120 1    
   107   55   56 1    
   108   55   57 1    
   109   55  121 1    
   110   56  122 1    
   111   56  123 1    
   112   56  124 1    
   113   57   58 2    
   114   57   59 am   BACKBONE|DICT|INTERRES
   115   59   60 1    
   116   59  125 1    
   117   60   61 1    
   118   60   62 1    
   119   60  126 1    
   120   61  127 1    
   121   61  128 1    
   122   61  129 1    
   123   62   63 2    
   124   62   64 am   BACKBONE|DICT|INTERRES
   125   64   65 1    
   126   64  130 1    
   127   65   66 1    
   128   65   69 1    
   129   65  131 1    
   130   66   67 am   BACKBONE|DICT|INTERRES
   131   66   68 2    
   132   67  132 1    
   133   67  133 1    
   134   69   70 1    
   135   69  134 1    
   136   69  135 1    
   137   70   71 1    
   138   71  136 1    
   139   71  137 1    
@<TRIPOS>SUBSTRUCTURE
     1 UNK         1 GROUP             0       ****    0 ROOT    
