@<TRIPOS>MOLECULE
3R137
137   139    1
SMALL
USER_CHARGES


@<TRIPOS>ATOM
      1 CA         29.6316   -5.5247   -0.3283 C.3       0 UNK        -0.2020 
      2 C          29.3778   -4.2293    0.4287 C.2       0 UNK         0.4855 
      3 O          30.1675   -3.8643    1.2995 O.2       0 UNK        -0.5197 
      4 N          28.2827   -3.5357    0.1010 N.am      1 UNK        -0.4892 
      5 CA         27.8466   -2.2911    0.7389 C.3       1 UNK         0.0835 
      6 C6         28.7538   -1.0590    0.4516 C.3       12 UNK        -0.0855 
      7 S7         28.8357   -0.5376   -1.2983 S.3       12 UNK        -0.2931 
      8 C8         30.3873   -1.2978   -1.8751 C.3       12 UNK         0.0378 
      9 C9         30.1996   -1.9554   -3.2348 C.ar      12 UNK        -0.0802 
     10 C10        30.8202   -1.4447   -4.3799 C.ar      12 UNK        -0.0944 
     11 C11        30.6494   -2.0758   -5.6187 C.ar      12 UNK        -0.0787 
     12 C12        29.8472   -3.2181   -5.7062 C.ar      12 UNK        -0.0862 
     13 C13        29.2059   -3.7211   -4.5723 C.ar      12 UNK        -0.0733 
     14 C14        29.3969   -3.0922   -3.3427 C.ar      12 UNK        -0.0832 
     15 C15        28.2945   -4.9331   -4.6596 C.3       12 UNK         0.0240 
     16 S16        26.5543   -4.4322   -4.8458 S.3       12 UNK        -0.2522 
     17 C17        26.4362   -4.1827   -6.6502 C.3       12 UNK        -0.0967 
     18 CA         25.9107   -2.7984   -7.1031 C.3       5 UNK         0.0660 
     19 N          24.6303   -2.4348   -6.4905 N.am      5 UNK        -0.4015 
     20 C          23.5732   -1.9842   -7.1812 C.2       4 UNK         0.4946 
     21 O          23.5455   -1.8735   -8.4078 O.2       4 UNK        -0.5353 
     22 CA         22.3271   -1.5761   -6.3775 C.3       4 UNK         0.0277 
     23 CB         21.4360   -2.7998   -6.1085 C.3       4 UNK        -0.1981 
     24 N          22.6255   -0.9037   -5.1121 N.am      4 UNK        -0.4209 
     25 C          23.3083    0.2432   -4.9838 C.2       3 UNK         0.4942 
     26 O          23.7993    0.8658   -5.9252 O.2       3 UNK        -0.5208 
     27 CA         23.4940    0.7748   -3.5527 C.3       3 UNK         0.0250 
     28 CB         22.3289    1.7035   -3.1746 C.3       3 UNK        -0.1990 
     29 N          23.6385   -0.2668   -2.5289 N.am      3 UNK        -0.4232 
     30 C          24.5709   -1.2298   -2.5227 C.2       2 UNK         0.4993 
     31 O          25.3770   -1.4213   -3.4372 O.2       2 UNK        -0.5286 
     32 CA         24.5771   -2.1600   -1.3070 C.3       2 UNK         0.0209 
     33 CB         24.0299   -3.5462   -1.6871 C.3       2 UNK        -0.1931 
     34 N          25.9509   -2.2963   -0.8292 N.am      2 UNK        -0.4546 
     35 C          26.3591   -2.0459    0.4243 C.2       1 UNK         0.5154 
     36 O          25.6049   -1.6859    1.3297 O.2       1 UNK        -0.5181 
     37 C          26.9471   -1.6670   -6.9725 C.2       5 UNK         0.5014 
     38 O          27.7711   -1.5245   -7.8779 O.2       5 UNK        -0.5248 
     39 N          26.8662   -0.8359   -5.9178 N.am      6 UNK        -0.4434 
     40 CA         27.7135    0.3532   -5.7386 C.3       6 UNK         0.0363 
     41 CB         27.4076    1.0215   -4.3938 C.3       6 UNK        -0.1936 
     42 C          27.5798    1.3839   -6.8726 C.2       6 UNK         0.5081 
     43 O          28.5558    2.0657   -7.1878 O.2       6 UNK        -0.5248 
     44 N          26.3974    1.4335   -7.5053 N.am      7 UNK        -0.4718 
     45 CA         26.0759    2.2236   -8.6987 C.3       7 UNK         0.0273 
     46 CB         24.6059    1.9751   -9.0748 C.3       7 UNK        -0.1935 
     47 C          26.9886    1.9769   -9.9182 C.2       7 UNK         0.5018 
     48 O          27.0101    2.8177  -10.8180 O.2       7 UNK        -0.5186 
     49 N          27.7422    0.8651   -9.9296 N.am      8 UNK        -0.4240 
     50 CA         28.8002    0.5912  -10.9057 C.3       8 UNK         0.0235 
     51 CB         29.2669   -0.8654  -10.7578 C.3       8 UNK        -0.2000 
     52 C          30.0028    1.5496  -10.7964 C.2       8 UNK         0.4941 
     53 O          30.7336    1.6888  -11.7775 O.2       8 UNK        -0.5273 
     54 N          30.2029    2.1775   -9.6242 N.am      9 UNK        -0.4262 
     55 CA         31.1842    3.2218   -9.2792 C.3       9 UNK         0.0264 
     56 CB         30.9330    4.4979  -10.1048 C.3       9 UNK        -0.1955 
     57 C          32.6724    2.8221   -9.3418 C.2       9 UNK         0.5031 
     58 O          33.4637    3.3537   -8.5605 O.2       9 UNK        -0.5390 
     59 N          33.0333    1.8966  -10.2394 N.am      10 UNK        -0.4204 
     60 CA         34.3903    1.4112  -10.5216 C.3       10 UNK         0.0237 
     61 CB         34.3163    0.3727  -11.6531 C.3       10 UNK        -0.1985 
     62 C          35.1533    0.8314   -9.3153 C.2       10 UNK         0.4970 
     63 O          36.3834    0.7799   -9.3566 O.2       10 UNK        -0.4914 
     64 N          34.4255    0.4186   -8.2708 N.am      11 UNK        -0.4285 
     65 CA         34.9761   -0.0276   -6.9824 C.3       11 UNK         0.1007 
     66 C          35.6602    1.1016   -6.1554 C.2       11 UNK         0.5703 
     67 N          35.4192    2.3774   -6.4406 N.am      11 UNK        -0.7361 
     68 O          36.4261    0.8111   -5.2396 O.2       11 UNK        -0.4986 
     69 C69        33.9155   -0.7601   -6.1181 C.3       12 UNK        -0.0947 
     70 S70        33.0306   -2.0755   -7.0249 S.3       12 UNK        -0.2240 
     71 C71        31.3038   -1.5210   -6.8751 C.3       12 UNK         0.0194 
     72 H72        30.5401   -5.4376   -0.9240 H         1 UNK         0.0906 
     73 H73        29.7613   -6.3495    0.3719 H         1 UNK         0.0906 
     74 H74        28.8094   -5.7770   -0.9976 H         1 UNK         0.0906 
     75 H75        27.6214   -3.9289   -0.5541 H         1 UNK         0.3140 
     76 H76        27.8886   -2.4688    1.8163 H         1 UNK         0.1085 
     77 H77        28.3959   -0.2051    1.0298 H         1 UNK         0.0836 
     78 H78        29.7637   -1.2410    0.8210 H         1 UNK         0.0836 
     79 H79        31.1646   -0.5332   -1.9139 H         1 UNK         0.0731 
     80 H80        30.7323   -2.0508   -1.1659 H         1 UNK         0.0731 
     81 H81        31.4328   -0.5577   -4.3065 H         1 UNK         0.1312 
     82 H82        29.7048   -3.7007   -6.6631 H         1 UNK         0.1406 
     83 H83        28.9009   -3.4796   -2.4682 H         1 UNK         0.1631 
     84 H84        28.3900   -5.5285   -3.7504 H         1 UNK         0.0717 
     85 H85        28.5926   -5.5888   -5.4791 H         1 UNK         0.0717 
     86 H86        27.3962   -4.3900   -7.1253 H         1 UNK         0.0934 
     87 H87        25.7634   -4.9530   -7.0302 H         1 UNK         0.0934 
     88 H88        25.7603   -2.8994   -8.1802 H         1 UNK         0.0739 
     89 H89        24.5859   -2.4806   -5.4809 H         1 UNK         0.3093 
     90 H90        21.7624   -0.8714   -6.9918 H         1 UNK         0.0818 
     91 H91        20.4978   -2.5120   -5.6337 H         1 UNK         0.0819 
     92 H92        21.1817   -3.3090   -7.0394 H         1 UNK         0.0819 
     93 H93        21.9306   -3.5277   -5.4640 H         1 UNK         0.0819 
     94 H94        22.2680   -1.3353   -4.2726 H         1 UNK         0.3041 
     95 H95        24.4076    1.3682   -3.5385 H         1 UNK         0.0784 
     96 H96        21.3811    1.1658   -3.1259 H         1 UNK         0.0793 
     97 H97        22.4964    2.1791   -2.2080 H         1 UNK         0.0793 
     98 H98        22.2127    2.5022   -3.9090 H         1 UNK         0.0793 
     99 H99        23.0087   -0.2014   -1.7418 H         1 UNK         0.3024 
    100 H100       23.9389   -1.7337   -0.5295 H         1 UNK         0.1171 
    101 H101       23.0055   -3.4765   -2.0549 H         1 UNK         0.0786 
    102 H102       24.0206   -4.2160   -0.8272 H         1 UNK         0.0786 
    103 H103       24.6267   -4.0166   -2.4695 H         1 UNK         0.0786 
    104 H104       26.6422   -2.4274   -1.5560 H         1 UNK         0.2977 
    105 H105       26.2161   -1.0433   -5.1643 H         1 UNK         0.3127 
    106 H106       28.7487    0.0120   -5.7235 H         1 UNK         0.0770 
    107 H107       26.4446    1.5282   -4.4099 H         1 UNK         0.0814 
    108 H108       28.1642    1.7685   -4.1513 H         1 UNK         0.0814 
    109 H109       27.3946    0.2960   -3.5836 H         1 UNK         0.0814 
    110 H110       25.6385    0.8813   -7.1214 H         1 UNK         0.2983 
    111 H111       26.1899    3.2753   -8.4289 H         1 UNK         0.0947 
    112 H112       24.3233    2.5444   -9.9615 H         1 UNK         0.0806 
    113 H113       23.9344    2.2791   -8.2718 H         1 UNK         0.0806 
    114 H114       24.4177    0.9216   -9.2875 H         1 UNK         0.0806 
    115 H115       27.6562    0.2100   -9.1595 H         1 UNK         0.3000 
    116 H116       28.3749    0.7151  -11.9039 H         1 UNK         0.0850 
    117 H117       30.0152   -1.1156  -11.5111 H         1 UNK         0.0810 
    118 H118       28.4381   -1.5632  -10.8791 H         1 UNK         0.0810 
    119 H119       29.7147   -1.0462   -9.7805 H         1 UNK         0.0810 
    120 H120       29.5534    1.9681   -8.8692 H         1 UNK         0.3040 
    121 H121       30.9824    3.4655   -8.2347 H         1 UNK         0.0766 
    122 H122       31.5891    5.3074   -9.7816 H         1 UNK         0.0812 
    123 H123       29.9067    4.8472   -9.9903 H         1 UNK         0.0812 
    124 H124       31.1157    4.3376  -11.1679 H         1 UNK         0.0812 
    125 H125       32.2984    1.5909  -10.8753 H         1 UNK         0.3205 
    126 H126       34.9667    2.2669  -10.8784 H         1 UNK         0.0754 
    127 H127       35.3102    0.0112  -11.9210 H         1 UNK         0.0769 
    128 H128       33.8748    0.7984  -12.5547 H         1 UNK         0.0769 
    129 H129       33.7197   -0.4937  -11.3645 H         1 UNK         0.0769 
    130 H130       33.4220    0.4900   -8.3258 H         1 UNK         0.2981 
    131 H131       35.7609   -0.7510   -7.2113 H         1 UNK         0.0541 
    132 H132       35.8714    3.0962   -5.8989 H         1 UNK         0.3459 
    133 H133       34.7833    2.6346   -7.1883 H         1 UNK         0.3459 
    134 H134       33.1981   -0.0391   -5.7245 H         1 UNK         0.0612 
    135 H135       34.3876   -1.2200   -5.2481 H         1 UNK         0.0612 
    136 H136       31.2412   -0.4320   -6.8910 H         1 UNK         0.0624 
    137 H137       30.7577   -1.8617   -7.7556 H         1 UNK         0.0624 
@<TRIPOS>BOND
     1    1    2 1    
     2    1   72 1    
     3    1   73 1    
     4    1   74 1    
     5    2    3 2    
     6    2    4 am   BACKBONE|DICT|INTERRES
     7    4    5 1    
     8    4   75 1    
     9    5    6 1    
    10    5   35 1    
    11    5   76 1    
    12    6    7 1    
    13    6   77 1    
    14    6   78 1    
    15    7    8 1    
    16    8    9 1    
    17    8   79 1    
    18    8   80 1    
    19    9   10 ar   
    20    9   14 ar   
    21   10   11 ar   
    22   10   81 1    
    23   11   12 ar   
    24   11   71 1    
    25   12   13 ar   
    26   12   82 1    
    27   13   14 ar   
    28   13   15 1    
    29   14   83 1    
    30   15   16 1    
    31   15   84 1    
    32   15   85 1    
    33   16   17 1    
    34   17   18 1    
    35   17   86 1    
    36   17   87 1    
    37   18   19 1    
    38   18   37 1    
    39   18   88 1    
    40   19   20 am   BACKBONE|DICT|INTERRES
    41   19   89 1    
    42   20   21 2    
    43   20   22 1    
    44   22   23 1    
    45   22   24 1    
    46   22   90 1    
    47   23   91 1    
    48   23   92 1    
    49   23   93 1    
    50   24   25 am   BACKBONE|DICT|INTERRES
    51   24   94 1    
    52   25   26 2    
    53   25   27 1    
    54   27   28 1    
    55   27   29 1    
    56   27   95 1    
    57   28   96 1    
    58   28   97 1    
    59   28   98 1    
    60   29   30 am   BACKBONE|DICT|INTERRES
    61   29   99 1    
    62   30   31 2    
    63   30   32 1    
    64   32   33 1    
    65   32   34 1    
    66   32  100 1    
    67   33  101 1    
    68   33  102 1    
    69   33  103 1    
    70   34   35 am   BACKBONE|DICT|INTERRES
    71   34  104 1    
    72   35   36 2    
    73   37   38 2    
    74   37   39 am   BACKBONE|DICT|INTERRES
    75   39   40 1    
    76   39  105 1    
    77   40   41 1    
    78   40   42 1    
    79   40  106 1    
    80   41  107 1    
    81   41  108 1    
    82   41  109 1    
    83   42   43 2    
    84   42   44 am   BACKBONE|DICT|INTERRES
    85   44   45 1    
    86   44  110 1    
    87   45   46 1    
    88   45   47 1    
    89   45  111 1    
    90   46  112 1    
    91   46  113 1    
    92   46  114 1    
    93   47   48 2    
    94   47   49 am   BACKBONE|DICT|INTERRES
    95   49   50 1    
    96   49  115 1    
    97   50   51 1    
    98   50   52 1    
    99   50  116 1    
   100   51  117 1    
   101   51  118 1    
   102   51  119 1    
   103   52   53 2    
   104   52   54 am   BACKBONE|DICT|INTERRES
   105   54   55 1    
   106   54  120 1    
   107   55   56 1    
   108   55   57 1    
   109   55  121 1    
   110   56  122 1    
   111   56  123 1    
   112   56  124 1    
   113   57   58 2    
   114   57   59 am   BACKBONE|DICT|INTERRES
   115   59   60 1    
   116   59  125 1    
   117   60   61 1    
   118   60   62 1    
   119   60  126 1    
   120   61  127 1    
   121   61  128 1    
   122   61  129 1    
   123   62   63 2    
   124   62   64 am   BACKBONE|DICT|INTERRES
   125   64   65 1    
   126   64  130 1    
   127   65   66 1    
   128   65   69 1    
   129   65  131 1    
   130   66   67 am   BACKBONE|DICT|INTERRES
   131   66   68 2    
   132   67  132 1    
   133   67  133 1    
   134   69   70 1    
   135   69  134 1    
   136   69  135 1    
   137   70   71 1    
   138   71  136 1    
   139   71  137 1    
@<TRIPOS>SUBSTRUCTURE
     1 UNK         1 GROUP             0       ****    0 ROOT    
