@<TRIPOS>MOLECULE
3R137
137   139    1
SMALL
USER_CHARGES


@<TRIPOS>ATOM
      1 CA         28.1209   -6.1491    2.0390 C.3       0 UNK        -0.2020 
      2 C          27.6187   -4.7133    2.0199 C.2       0 UNK         0.4855 
      3 O          26.5839   -4.4182    2.6180 O.2       0 UNK        -0.5197 
      4 N          28.3453   -3.8177    1.3392 N.am      1 UNK        -0.4892 
      5 CA         28.0066   -2.3973    1.1762 C.3       1 UNK         0.0835 
      6 C6         29.2229   -1.5574    0.7034 C.3       12 UNK        -0.0855 
      7 S7         30.1401   -2.2944   -0.6950 S.3       12 UNK        -0.2931 
      8 C8         29.5490   -1.2781   -2.0790 C.3       12 UNK         0.0378 
      9 C9         29.9377   -1.9035   -3.4076 C.ar      12 UNK        -0.0802 
     10 C10        30.9989   -1.3870   -4.1538 C.ar      12 UNK        -0.0944 
     11 C11        31.3526   -1.9585   -5.3830 C.ar      12 UNK        -0.0787 
     12 C12        30.6333   -3.0630   -5.8539 C.ar      12 UNK        -0.0862 
     13 C13        29.5636   -3.5837   -5.1184 C.ar      12 UNK        -0.0733 
     14 C14        29.2222   -2.9980   -3.8964 C.ar      12 UNK        -0.0832 
     15 C15        28.7838   -4.7867   -5.6330 C.3       12 UNK         0.0240 
     16 S16        27.7305   -4.3898   -7.0668 S.3       12 UNK        -0.2522 
     17 C17        26.5382   -3.1944   -6.3693 C.3       12 UNK        -0.0967 
     18 CA         26.4051   -1.9153   -7.2327 C.3       5 UNK         0.0660 
     19 N          25.1923   -1.1661   -6.8926 N.am      5 UNK        -0.4015 
     20 C          24.7617   -0.0354   -7.4682 C.2       4 UNK         0.4946 
     21 O          25.3303    0.5078   -8.4153 O.2       4 UNK        -0.5353 
     22 CA         23.5224    0.6454   -6.8577 C.3       4 UNK         0.0277 
     23 CB         22.2237    0.0855   -7.4697 C.3       4 UNK        -0.1981 
     24 N          23.4872    0.6360   -5.3844 N.am      4 UNK        -0.4209 
     25 C          23.3600   -0.4132   -4.5597 C.2       3 UNK         0.4942 
     26 O          23.2003   -1.5752   -4.9434 O.2       3 UNK        -0.5208 
     27 CA         23.4462   -0.1075   -3.0557 C.3       3 UNK         0.0250 
     28 CB         22.0769    0.3411   -2.5191 C.3       3 UNK        -0.1990 
     29 N          23.9010   -1.2689   -2.2886 N.am      3 UNK        -0.4232 
     30 C          25.1246   -1.8107   -2.3592 C.2       2 UNK         0.4993 
     31 O          26.0434   -1.3644   -3.0519 O.2       2 UNK        -0.5286 
     32 CA         25.3380   -3.0960   -1.5390 C.3       2 UNK         0.0209 
     33 CB         25.4103   -4.3205   -2.4672 C.3       2 UNK        -0.1931 
     34 N          26.5301   -3.0579   -0.6862 N.am      2 UNK        -0.4546 
     35 C          26.7566   -2.1710    0.2961 C.2       1 UNK         0.5154 
     36 O          26.0045   -1.2303    0.5570 O.2       1 UNK        -0.5181 
     37 C          27.6691   -1.0323   -7.1745 C.2       5 UNK         0.5014 
     38 O          28.4794   -1.0825   -8.0993 O.2       5 UNK        -0.5248 
     39 N          27.7690   -0.1867   -6.1372 N.am      6 UNK        -0.4434 
     40 CA         28.8393    0.7978   -5.9552 C.3       6 UNK         0.0363 
     41 CB         28.6200    1.5492   -4.6333 C.3       6 UNK        -0.1936 
     42 C          28.9824    1.7886   -7.1213 C.2       6 UNK         0.5081 
     43 O          30.1059    2.0868   -7.5267 O.2       6 UNK        -0.5248 
     44 N          27.8463    2.2563   -7.6548 N.am      7 UNK        -0.4718 
     45 CA         27.7896    3.1488   -8.8116 C.3       7 UNK         0.0273 
     46 CB         26.4369    3.8788   -8.8360 C.3       7 UNK        -0.1935 
     47 C          28.0297    2.3956  -10.1280 C.2       7 UNK         0.5018 
     48 O          28.7617    2.8982  -10.9800 O.2       7 UNK        -0.5186 
     49 N          27.4234    1.2071  -10.2652 N.am      8 UNK        -0.4240 
     50 CA         27.5214    0.3471  -11.4475 C.3       8 UNK         0.0235 
     51 CB         26.5197   -0.8127  -11.3279 C.3       8 UNK        -0.2000 
     52 C          28.9429   -0.1832  -11.6948 C.2       8 UNK         0.4941 
     53 O          29.4227   -0.1176  -12.8273 O.2       8 UNK        -0.5273 
     54 N          29.5942   -0.6824  -10.6358 N.am      9 UNK        -0.4262 
     55 CA         30.9782   -1.1621  -10.6687 C.3       9 UNK         0.0264 
     56 CB         31.1691   -2.2135   -9.5662 C.3       9 UNK        -0.1955 
     57 C          32.0117   -0.0287  -10.5306 C.2       9 UNK         0.5031 
     58 O          33.1838   -0.2622  -10.8280 O.2       9 UNK        -0.5390 
     59 N          31.5646    1.1610  -10.0985 N.am      10 UNK        -0.4204 
     60 CA         32.3260    2.3995   -9.9070 C.3       10 UNK         0.0237 
     61 CB         32.8186    2.9513  -11.2623 C.3       10 UNK        -0.1985 
     62 C          33.4541    2.2365   -8.8723 C.2       10 UNK         0.4970 
     63 O          34.6316    2.3551   -9.2189 O.2       10 UNK        -0.4914 
     64 N          33.0725    1.9653   -7.6191 N.am      11 UNK        -0.4285 
     65 CA         33.9945    1.8207   -6.4833 C.3       11 UNK         0.1007 
     66 C          33.3632    2.3314   -5.1589 C.2       11 UNK         0.5703 
     67 N          34.1702    2.5257   -4.1244 N.am      11 UNK        -0.7361 
     68 O          32.1586    2.5516   -5.0551 O.2       11 UNK        -0.4986 
     69 C69        34.6509    0.4005   -6.4289 C.3       12 UNK        -0.0947 
     70 S70        33.9128   -0.8263   -5.2923 S.3       12 UNK        -0.2240 
     71 C71        32.4519   -1.3440   -6.2448 C.3       12 UNK         0.0194 
     72 H72        29.0467   -6.2654    1.4757 H         1 UNK         0.0906 
     73 H73        28.3061   -6.4681    3.0644 H         1 UNK         0.0906 
     74 H74        27.3742   -6.8134    1.6050 H         1 UNK         0.0906 
     75 H75        29.1922   -4.1077    0.8682 H         1 UNK         0.3140 
     76 H76        27.7334   -2.0248    2.1666 H         1 UNK         0.1085 
     77 H77        28.9289   -0.5327    0.4660 H         1 UNK         0.0836 
     78 H78        29.9284   -1.4659    1.5308 H         1 UNK         0.0836 
     79 H79        29.9596   -0.2713   -1.9879 H         1 UNK         0.0731 
     80 H80        28.4649   -1.1764   -2.0295 H         1 UNK         0.0731 
     81 H81        31.5352   -0.5226   -3.7869 H         1 UNK         0.1312 
     82 H82        30.8866   -3.5082   -6.8060 H         1 UNK         0.1406 
     83 H83        28.3997   -3.3903   -3.3162 H         1 UNK         0.1631 
     84 H84        28.1631   -5.2148   -4.8442 H         1 UNK         0.0717 
     85 H85        29.4871   -5.5687   -5.9225 H         1 UNK         0.0717 
     86 H86        25.5758   -3.7059   -6.3143 H         1 UNK         0.0934 
     87 H87        26.7942   -2.9428   -5.3392 H         1 UNK         0.0934 
     88 H88        26.2793   -2.2254   -8.2714 H         1 UNK         0.0739 
     89 H89        24.6230   -1.5315   -6.1324 H         1 UNK         0.3093 
     90 H90        23.5831    1.6979   -7.1401 H         1 UNK         0.0818 
     91 H91        21.3476    0.6086   -7.0865 H         1 UNK         0.0819 
     92 H92        22.2242    0.2059   -8.5539 H         1 UNK         0.0819 
     93 H93        22.0957   -0.9776   -7.2648 H         1 UNK         0.0819 
     94 H94        23.6218    1.5431   -4.9581 H         1 UNK         0.3041 
     95 H95        24.1683    0.6978   -2.9037 H         1 UNK         0.0784 
     96 H96        21.7201    1.2291   -3.0429 H         1 UNK         0.0793 
     97 H97        21.3205   -0.4352   -2.6438 H         1 UNK         0.0793 
     98 H98        22.1284    0.5929   -1.4595 H         1 UNK         0.0793 
     99 H99        23.2014   -1.7252   -1.7219 H         1 UNK         0.3024 
    100 H100       24.4818   -3.2289   -0.8738 H         1 UNK         0.1171 
    101 H101       24.5130   -4.3940   -3.0835 H         1 UNK         0.0786 
    102 H102       26.2614   -4.2681   -3.1452 H         1 UNK         0.0786 
    103 H103       25.4880   -5.2479   -1.8993 H         1 UNK         0.0786 
    104 H104       27.2112   -3.7904   -0.8191 H         1 UNK         0.2977 
    105 H105       27.0677   -0.2346   -5.4114 H         1 UNK         0.3127 
    106 H106       29.7788    0.2527   -5.8932 H         1 UNK         0.0770 
    107 H107       27.6959    2.1282   -4.6442 H         1 UNK         0.0814 
    108 H108       29.4394    2.2436   -4.4420 H         1 UNK         0.0814 
    109 H109       28.5738    0.8631   -3.7888 H         1 UNK         0.0814 
    110 H110       26.9661    1.9046   -7.3057 H         1 UNK         0.2983 
    111 H111       28.5769    3.8997   -8.7100 H         1 UNK         0.0947 
    112 H112       26.3831    4.5685   -9.6795 H         1 UNK         0.0806 
    113 H113       26.2868    4.4652   -7.9294 H         1 UNK         0.0806 
    114 H114       25.6004    3.1853   -8.9295 H         1 UNK         0.0806 
    115 H115       26.8028    0.8925   -9.5219 H         1 UNK         0.3000 
    116 H116       27.2391    0.9495  -12.3136 H         1 UNK         0.0850 
    117 H117       26.5397   -1.4394  -12.2204 H         1 UNK         0.0810 
    118 H118       25.4997   -0.4460  -11.2104 H         1 UNK         0.0810 
    119 H119       26.7448   -1.4524  -10.4747 H         1 UNK         0.0810 
    120 H120       29.1163   -0.7389   -9.7348 H         1 UNK         0.3040 
    121 H121       31.1608   -1.6494  -11.6289 H         1 UNK         0.0766 
    122 H122       30.9626   -1.7923   -8.5841 H         1 UNK         0.0812 
    123 H123       32.1903   -2.5967   -9.5559 H         1 UNK         0.0812 
    124 H124       30.5017   -3.0637   -9.7086 H         1 UNK         0.0812 
    125 H125       30.5876    1.2214   -9.8464 H         1 UNK         0.3205 
    126 H126       31.6283    3.1311   -9.4969 H         1 UNK         0.0754 
    127 H127       33.3162    3.9132  -11.1331 H         1 UNK         0.0769 
    128 H128       31.9864    3.1061  -11.9494 H         1 UNK         0.0769 
    129 H129       33.5299    2.2794  -11.7437 H         1 UNK         0.0769 
    130 H130       32.0807    1.9489   -7.3892 H         1 UNK         0.2981 
    131 H131       34.8028    2.5314   -6.6685 H         1 UNK         0.0541 
    132 H132       35.1575    2.3339   -4.1900 H         1 UNK         0.3459 
    133 H133       33.7795    2.8546   -3.2559 H         1 UNK         0.3459 
    134 H134       35.6872    0.5153   -6.1082 H         1 UNK         0.0612 
    135 H135       34.7150   -0.0401   -7.4253 H         1 UNK         0.0612 
    136 H136       32.7817   -2.0453   -7.0121 H         1 UNK         0.0624 
    137 H137       32.0302   -0.4824   -6.7626 H         1 UNK         0.0624 
@<TRIPOS>BOND
     1    1    2 1    
     2    1   72 1    
     3    1   73 1    
     4    1   74 1    
     5    2    3 2    
     6    2    4 am   BACKBONE|DICT|INTERRES
     7    4    5 1    
     8    4   75 1    
     9    5    6 1    
    10    5   35 1    
    11    5   76 1    
    12    6    7 1    
    13    6   77 1    
    14    6   78 1    
    15    7    8 1    
    16    8    9 1    
    17    8   79 1    
    18    8   80 1    
    19    9   10 ar   
    20    9   14 ar   
    21   10   11 ar   
    22   10   81 1    
    23   11   12 ar   
    24   11   71 1    
    25   12   13 ar   
    26   12   82 1    
    27   13   14 ar   
    28   13   15 1    
    29   14   83 1    
    30   15   16 1    
    31   15   84 1    
    32   15   85 1    
    33   16   17 1    
    34   17   18 1    
    35   17   86 1    
    36   17   87 1    
    37   18   19 1    
    38   18   37 1    
    39   18   88 1    
    40   19   20 am   BACKBONE|DICT|INTERRES
    41   19   89 1    
    42   20   21 2    
    43   20   22 1    
    44   22   23 1    
    45   22   24 1    
    46   22   90 1    
    47   23   91 1    
    48   23   92 1    
    49   23   93 1    
    50   24   25 am   BACKBONE|DICT|INTERRES
    51   24   94 1    
    52   25   26 2    
    53   25   27 1    
    54   27   28 1    
    55   27   29 1    
    56   27   95 1    
    57   28   96 1    
    58   28   97 1    
    59   28   98 1    
    60   29   30 am   BACKBONE|DICT|INTERRES
    61   29   99 1    
    62   30   31 2    
    63   30   32 1    
    64   32   33 1    
    65   32   34 1    
    66   32  100 1    
    67   33  101 1    
    68   33  102 1    
    69   33  103 1    
    70   34   35 am   BACKBONE|DICT|INTERRES
    71   34  104 1    
    72   35   36 2    
    73   37   38 2    
    74   37   39 am   BACKBONE|DICT|INTERRES
    75   39   40 1    
    76   39  105 1    
    77   40   41 1    
    78   40   42 1    
    79   40  106 1    
    80   41  107 1    
    81   41  108 1    
    82   41  109 1    
    83   42   43 2    
    84   42   44 am   BACKBONE|DICT|INTERRES
    85   44   45 1    
    86   44  110 1    
    87   45   46 1    
    88   45   47 1    
    89   45  111 1    
    90   46  112 1    
    91   46  113 1    
    92   46  114 1    
    93   47   48 2    
    94   47   49 am   BACKBONE|DICT|INTERRES
    95   49   50 1    
    96   49  115 1    
    97   50   51 1    
    98   50   52 1    
    99   50  116 1    
   100   51  117 1    
   101   51  118 1    
   102   51  119 1    
   103   52   53 2    
   104   52   54 am   BACKBONE|DICT|INTERRES
   105   54   55 1    
   106   54  120 1    
   107   55   56 1    
   108   55   57 1    
   109   55  121 1    
   110   56  122 1    
   111   56  123 1    
   112   56  124 1    
   113   57   58 2    
   114   57   59 am   BACKBONE|DICT|INTERRES
   115   59   60 1    
   116   59  125 1    
   117   60   61 1    
   118   60   62 1    
   119   60  126 1    
   120   61  127 1    
   121   61  128 1    
   122   61  129 1    
   123   62   63 2    
   124   62   64 am   BACKBONE|DICT|INTERRES
   125   64   65 1    
   126   64  130 1    
   127   65   66 1    
   128   65   69 1    
   129   65  131 1    
   130   66   67 am   BACKBONE|DICT|INTERRES
   131   66   68 2    
   132   67  132 1    
   133   67  133 1    
   134   69   70 1    
   135   69  134 1    
   136   69  135 1    
   137   70   71 1    
   138   71  136 1    
   139   71  137 1    
@<TRIPOS>SUBSTRUCTURE
     1 UNK         1 GROUP             0       ****    0 ROOT    
