@<TRIPOS>MOLECULE
3R137
137   139    1
SMALL
USER_CHARGES


@<TRIPOS>ATOM
      1 CA         26.8738   -8.2351   -4.5066 C.3       0 UNK        -0.2020 
      2 C          26.8000   -6.8926   -3.7956 C.2       0 UNK         0.4855 
      3 O          26.2473   -6.8082   -2.6976 O.2       0 UNK        -0.5197 
      4 N          27.3470   -5.8372   -4.4112 N.am      1 UNK        -0.4892 
      5 CA         27.3768   -4.4668   -3.8853 C.3       1 UNK         0.0835 
      6 C6         28.5712   -3.6545   -4.4532 C.3       12 UNK        -0.0855 
      7 S7         30.1867   -4.4669   -4.1763 S.3       12 UNK        -0.2931 
      8 C8         30.7488   -3.7632   -2.5926 C.3       12 UNK         0.0378 
      9 C9         31.0051   -2.2631   -2.6622 C.ar      12 UNK        -0.0802 
     10 C10        32.1259   -1.7582   -3.3292 C.ar      12 UNK        -0.0944 
     11 C11        32.3704   -0.3807   -3.3657 C.ar      12 UNK        -0.0787 
     12 C12        31.4815    0.4907   -2.7280 C.ar      12 UNK        -0.0862 
     13 C13        30.3532    0.0026   -2.0607 C.ar      12 UNK        -0.0733 
     14 C14        30.1320   -1.3794   -2.0239 C.ar      12 UNK        -0.0832 
     15 C15        29.4243    0.9789   -1.3396 C.3       12 UNK         0.0240 
     16 S16        27.6778    0.4474   -1.2801 S.3       12 UNK        -0.2522 
     17 C17        26.9715    1.1410   -2.8087 C.3       12 UNK        -0.0967 
     18 CA         27.0519    0.1752   -4.0365 C.3       5 UNK         0.0660 
     19 N          25.7883    0.1465   -4.7726 N.am      5 UNK        -0.4015 
     20 C          25.2592    1.1588   -5.4761 C.2       4 UNK         0.4946 
     21 O          25.8498    2.2148   -5.7104 O.2       4 UNK        -0.5353 
     22 CA         23.8114    0.9860   -5.9678 C.3       4 UNK         0.0277 
     23 CB         23.7705    0.3268   -7.3531 C.3       4 UNK        -0.1981 
     24 N          22.9836    0.2091   -5.0414 N.am      4 UNK        -0.4209 
     25 C          22.6104    0.6126   -3.8176 C.2       3 UNK         0.4942 
     26 O          22.8479    1.7311   -3.3605 O.2       3 UNK        -0.5208 
     27 CA         21.8512   -0.4094   -2.9511 C.3       3 UNK         0.0250 
     28 CB         20.3328   -0.2177   -3.0980 C.3       3 UNK        -0.1990 
     29 N          22.1982   -1.8022   -3.2588 N.am      3 UNK        -0.4232 
     30 C          23.3901   -2.3624   -3.0059 C.2       2 UNK         0.4993 
     31 O          24.3037   -1.7708   -2.4266 O.2       2 UNK        -0.5286 
     32 CA         23.5767   -3.8247   -3.4648 C.3       2 UNK         0.0209 
     33 CB         22.9659   -4.0965   -4.8594 C.3       2 UNK        -0.1931 
     34 N          24.9772   -4.2699   -3.4316 N.am      2 UNK        -0.4546 
     35 C          26.0140   -3.7768   -4.1256 C.2       1 UNK         0.5154 
     36 O          25.9145   -2.8609   -4.9447 O.2       1 UNK        -0.5181 
     37 C          28.2297    0.4098   -5.0111 C.2       5 UNK         0.5014 
     38 O          28.4565   -0.4118   -5.9051 O.2       5 UNK        -0.5248 
     39 N          28.9126    1.5526   -4.8695 N.am      6 UNK        -0.4434 
     40 CA         30.0125    2.0127   -5.7132 C.3       6 UNK         0.0363 
     41 CB         30.5296    3.3481   -5.1574 C.3       6 UNK        -0.1936 
     42 C          29.6497    2.1654   -7.1993 C.2       6 UNK         0.5081 
     43 O          30.5264    1.9926   -8.0463 O.2       6 UNK        -0.5248 
     44 N          28.3774    2.4717   -7.4958 N.am      7 UNK        -0.4718 
     45 CA         27.8715    2.6223   -8.8616 C.3       7 UNK         0.0273 
     46 CB         26.5542    3.4139   -8.8402 C.3       7 UNK        -0.1935 
     47 C          27.6856    1.2794   -9.5871 C.2       7 UNK         0.5018 
     48 O          27.7775    1.2523  -10.8145 O.2       7 UNK        -0.5186 
     49 N          27.4382    0.1963   -8.8351 N.am      8 UNK        -0.4240 
     50 CA         27.3410   -1.1607   -9.3777 C.3       8 UNK         0.0235 
     51 CB         26.4799   -2.0487   -8.4645 C.3       8 UNK        -0.2000 
     52 C          28.7276   -1.7797   -9.5772 C.2       8 UNK         0.4941 
     53 O          28.9930   -2.3469  -10.6374 O.2       8 UNK        -0.5273 
     54 N          29.5828   -1.6607   -8.5538 N.am      9 UNK        -0.4262 
     55 CA         30.9309   -2.2307   -8.5487 C.3       9 UNK         0.0264 
     56 CB         31.3574   -2.4704   -7.0951 C.3       9 UNK        -0.1955 
     57 C          31.9741   -1.4172   -9.3404 C.2       9 UNK         0.5031 
     58 O          33.0496   -1.9540   -9.6110 O.2       9 UNK        -0.5390 
     59 N          31.6414   -0.1712   -9.7152 N.am      10 UNK        -0.4204 
     60 CA         32.4604    0.7921  -10.4641 C.3       10 UNK         0.0237 
     61 CB         32.7626    0.2834  -11.8903 C.3       10 UNK        -0.1985 
     62 C          33.7202    1.1904   -9.6748 C.2       10 UNK         0.4970 
     63 O          34.8446    0.9608  -10.1258 O.2       10 UNK        -0.4914 
     64 N          33.4888    1.7589   -8.4903 N.am      11 UNK        -0.4285 
     65 CA         34.5038    2.0966   -7.4834 C.3       11 UNK         0.1007 
     66 C          34.1498    3.4160   -6.7427 C.2       11 UNK         0.5703 
     67 N          34.7133    3.6670   -5.5683 N.am      11 UNK        -0.7361 
     68 O          33.4025    4.2512   -7.2490 O.2       11 UNK        -0.4986 
     69 C69        34.8405    0.8783   -6.5694 C.3       12 UNK        -0.0947 
     70 S70        33.3599    0.0621   -5.8873 S.3       12 UNK        -0.2240 
     71 C71        33.5933    0.1656   -4.0921 C.3       12 UNK         0.0194 
     72 H72        27.4004   -8.9593   -3.8858 H         1 UNK         0.0906 
     73 H73        25.8701   -8.6146   -4.6964 H         1 UNK         0.0906 
     74 H74        27.3959   -8.1636   -5.4606 H         1 UNK         0.0906 
     75 H75        27.7834   -5.9598   -5.3140 H         1 UNK         0.3140 
     76 H76        27.5149   -4.5152   -2.8026 H         1 UNK         0.1085 
     77 H77        28.5952   -2.6536   -4.0240 H         1 UNK         0.0836 
     78 H78        28.4549   -3.5074   -5.5289 H         1 UNK         0.0836 
     79 H79        30.0155   -3.9987   -1.8198 H         1 UNK         0.0731 
     80 H80        31.6702   -4.2664   -2.2961 H         1 UNK         0.0731 
     81 H81        32.8061   -2.4376   -3.8247 H         1 UNK         0.1312 
     82 H82        31.6752    1.5537   -2.7445 H         1 UNK         0.1406 
     83 H83        29.2806   -1.7760   -1.4888 H         1 UNK         0.1631 
     84 H84        29.4853    1.9728   -1.7851 H         1 UNK         0.0717 
     85 H85        29.7811    1.0825   -0.3142 H         1 UNK         0.0717 
     86 H86        25.9219    1.3078   -2.5577 H         1 UNK         0.0934 
     87 H87        27.3476    2.1470   -2.9924 H         1 UNK         0.0934 
     88 H88        27.1739   -0.8395   -3.6592 H         1 UNK         0.0739 
     89 H89        25.2802   -0.7261   -4.6973 H         1 UNK         0.3093 
     90 H90        23.3805    1.9860   -6.0531 H         1 UNK         0.0818 
     91 H91        22.7834    0.4243   -7.8054 H         1 UNK         0.0819 
     92 H92        24.4866    0.7830   -8.0379 H         1 UNK         0.0819 
     93 H93        24.0002   -0.7353   -7.2875 H         1 UNK         0.0819 
     94 H94        22.7224   -0.7207   -5.3335 H         1 UNK         0.3041 
     95 H95        22.1202   -0.2175   -1.9100 H         1 UNK         0.0784 
     96 H96        20.0434    0.8045   -2.8494 H         1 UNK         0.0793 
     97 H97        19.9957   -0.4126   -4.1169 H         1 UNK         0.0793 
     98 H98        19.7822   -0.8791   -2.4286 H         1 UNK         0.0793 
     99 H99        21.4857   -2.3575   -3.7107 H         1 UNK         0.3024 
    100 H100       23.0465   -4.4417   -2.7373 H         1 UNK         0.1171 
    101 H101       23.1761   -5.1145   -5.1879 H         1 UNK         0.0786 
    102 H102       23.3611   -3.4184   -5.6169 H         1 UNK         0.0786 
    103 H103       21.8811   -3.9883   -4.8539 H         1 UNK         0.0786 
    104 H104       25.1761   -5.0576   -2.8227 H         1 UNK         0.2977 
    105 H105       28.6246    2.1847   -4.1392 H         1 UNK         0.3127 
    106 H106       30.8055    1.2689   -5.6448 H         1 UNK         0.0770 
    107 H107       29.7513    4.1122   -5.1553 H         1 UNK         0.0814 
    108 H108       31.3499    3.7306   -5.7617 H         1 UNK         0.0814 
    109 H109       30.9027    3.2462   -4.1395 H         1 UNK         0.0814 
    110 H110       27.7018    2.5644   -6.7438 H         1 UNK         0.2983 
    111 H111       28.6014    3.2010   -9.4327 H         1 UNK         0.0947 
    112 H112       26.1895    3.5897   -9.8532 H         1 UNK         0.0806 
    113 H113       26.6843    4.3885   -8.3696 H         1 UNK         0.0806 
    114 H114       25.7694    2.8840   -8.3009 H         1 UNK         0.0806 
    115 H115       27.4398    0.2921   -7.8274 H         1 UNK         0.3000 
    116 H116       26.8558   -1.1245  -10.3560 H         1 UNK         0.0850 
    117 H117       26.5821   -3.1030   -8.7262 H         1 UNK         0.0810 
    118 H118       25.4260   -1.8055   -8.5737 H         1 UNK         0.0810 
    119 H119       26.7504   -1.9478   -7.4127 H         1 UNK         0.0810 
    120 H120       29.2716   -1.2039   -7.7018 H         1 UNK         0.3040 
    121 H121       30.8905   -3.2090   -9.0331 H         1 UNK         0.0766 
    122 H122       32.4226   -2.6909   -7.0139 H         1 UNK         0.0812 
    123 H123       30.8229   -3.3244   -6.6852 H         1 UNK         0.0812 
    124 H124       31.1405   -1.6127   -6.4584 H         1 UNK         0.0812 
    125 H125       30.7706    0.2015   -9.3582 H         1 UNK         0.3205 
    126 H126       31.8568    1.6958  -10.5630 H         1 UNK         0.0754 
    127 H127       33.2849    1.0449  -12.4707 H         1 UNK         0.0769 
    128 H128       31.8448    0.0397  -12.4254 H         1 UNK         0.0769 
    129 H129       33.3928   -0.6064  -11.8839 H         1 UNK         0.0769 
    130 H130       32.5275    1.9420   -8.2159 H         1 UNK         0.2981 
    131 H131       35.4196    2.3533   -8.0183 H         1 UNK         0.0541 
    132 H132       35.3536    3.0142   -5.1464 H         1 UNK         0.3459 
    133 H133       34.5011    4.5344   -5.1015 H         1 UNK         0.3459 
    134 H134       35.5316    1.1437   -5.7689 H         1 UNK         0.0612 
    135 H135       35.3661    0.1289   -7.1628 H         1 UNK         0.0612 
    136 H136       34.4792   -0.4035   -3.8068 H         1 UNK         0.0624 
    137 H137       33.7788    1.2037   -3.8122 H         1 UNK         0.0624 
@<TRIPOS>BOND
     1    1    2 1    
     2    1   72 1    
     3    1   73 1    
     4    1   74 1    
     5    2    3 2    
     6    2    4 am   BACKBONE|DICT|INTERRES
     7    4    5 1    
     8    4   75 1    
     9    5    6 1    
    10    5   35 1    
    11    5   76 1    
    12    6    7 1    
    13    6   77 1    
    14    6   78 1    
    15    7    8 1    
    16    8    9 1    
    17    8   79 1    
    18    8   80 1    
    19    9   10 ar   
    20    9   14 ar   
    21   10   11 ar   
    22   10   81 1    
    23   11   12 ar   
    24   11   71 1    
    25   12   13 ar   
    26   12   82 1    
    27   13   14 ar   
    28   13   15 1    
    29   14   83 1    
    30   15   16 1    
    31   15   84 1    
    32   15   85 1    
    33   16   17 1    
    34   17   18 1    
    35   17   86 1    
    36   17   87 1    
    37   18   19 1    
    38   18   37 1    
    39   18   88 1    
    40   19   20 am   BACKBONE|DICT|INTERRES
    41   19   89 1    
    42   20   21 2    
    43   20   22 1    
    44   22   23 1    
    45   22   24 1    
    46   22   90 1    
    47   23   91 1    
    48   23   92 1    
    49   23   93 1    
    50   24   25 am   BACKBONE|DICT|INTERRES
    51   24   94 1    
    52   25   26 2    
    53   25   27 1    
    54   27   28 1    
    55   27   29 1    
    56   27   95 1    
    57   28   96 1    
    58   28   97 1    
    59   28   98 1    
    60   29   30 am   BACKBONE|DICT|INTERRES
    61   29   99 1    
    62   30   31 2    
    63   30   32 1    
    64   32   33 1    
    65   32   34 1    
    66   32  100 1    
    67   33  101 1    
    68   33  102 1    
    69   33  103 1    
    70   34   35 am   BACKBONE|DICT|INTERRES
    71   34  104 1    
    72   35   36 2    
    73   37   38 2    
    74   37   39 am   BACKBONE|DICT|INTERRES
    75   39   40 1    
    76   39  105 1    
    77   40   41 1    
    78   40   42 1    
    79   40  106 1    
    80   41  107 1    
    81   41  108 1    
    82   41  109 1    
    83   42   43 2    
    84   42   44 am   BACKBONE|DICT|INTERRES
    85   44   45 1    
    86   44  110 1    
    87   45   46 1    
    88   45   47 1    
    89   45  111 1    
    90   46  112 1    
    91   46  113 1    
    92   46  114 1    
    93   47   48 2    
    94   47   49 am   BACKBONE|DICT|INTERRES
    95   49   50 1    
    96   49  115 1    
    97   50   51 1    
    98   50   52 1    
    99   50  116 1    
   100   51  117 1    
   101   51  118 1    
   102   51  119 1    
   103   52   53 2    
   104   52   54 am   BACKBONE|DICT|INTERRES
   105   54   55 1    
   106   54  120 1    
   107   55   56 1    
   108   55   57 1    
   109   55  121 1    
   110   56  122 1    
   111   56  123 1    
   112   56  124 1    
   113   57   58 2    
   114   57   59 am   BACKBONE|DICT|INTERRES
   115   59   60 1    
   116   59  125 1    
   117   60   61 1    
   118   60   62 1    
   119   60  126 1    
   120   61  127 1    
   121   61  128 1    
   122   61  129 1    
   123   62   63 2    
   124   62   64 am   BACKBONE|DICT|INTERRES
   125   64   65 1    
   126   64  130 1    
   127   65   66 1    
   128   65   69 1    
   129   65  131 1    
   130   66   67 am   BACKBONE|DICT|INTERRES
   131   66   68 2    
   132   67  132 1    
   133   67  133 1    
   134   69   70 1    
   135   69  134 1    
   136   69  135 1    
   137   70   71 1    
   138   71  136 1    
   139   71  137 1    
@<TRIPOS>SUBSTRUCTURE
     1 UNK         1 GROUP             0       ****    0 ROOT    
