@<TRIPOS>MOLECULE
3R137
137   139    1
SMALL
USER_CHARGES


@<TRIPOS>ATOM
      1 CA         24.9310   -6.0817    0.7830 C.3       0 UNK        -0.2020 
      2 C          25.8148   -4.8444    0.8319 C.2       0 UNK         0.4855 
      3 O          25.3570   -3.7813    1.2520 O.2       0 UNK        -0.5197 
      4 N          27.0798   -4.9740    0.4118 N.am      1 UNK        -0.4892 
      5 CA         28.0387   -3.8707    0.3053 C.3       1 UNK         0.0835 
      6 C6         29.4862   -4.4064    0.1658 C.3       12 UNK        -0.0855 
      7 S7         30.7627   -3.1393    0.4919 S.3       12 UNK        -0.2931 
      8 C8         31.8025   -3.2309   -1.0050 C.3       12 UNK         0.0378 
      9 C9         31.2157   -2.4330   -2.1611 C.ar      12 UNK        -0.0802 
     10 C10        31.5360   -1.0789   -2.3148 C.ar      12 UNK        -0.0944 
     11 C11        30.9955   -0.3358   -3.3693 C.ar      12 UNK        -0.0787 
     12 C12        30.1175   -0.9570   -4.2596 C.ar      12 UNK        -0.0862 
     13 C13        29.7885   -2.3055   -4.1187 C.ar      12 UNK        -0.0733 
     14 C14        30.3563   -3.0455   -3.0790 C.ar      12 UNK        -0.0832 
     15 C15        28.7864   -2.9358   -5.0706 C.3       12 UNK         0.0240 
     16 S16        29.4490   -3.0067   -6.7596 S.3       12 UNK        -0.2522 
     17 C17        27.9025   -3.0914   -7.7289 C.3       12 UNK        -0.0967 
     18 CA         27.1724   -1.7580   -8.1062 C.3       5 UNK         0.0660 
     19 N          25.7849   -1.7568   -7.6331 N.am      5 UNK        -0.4015 
     20 C          24.8366   -0.8981   -8.0325 C.2       4 UNK         0.4946 
     21 O          25.0099   -0.0661   -8.9237 O.2       4 UNK        -0.5353 
     22 CA         23.4928   -0.9251   -7.2751 C.3       4 UNK         0.0277 
     23 CB         22.4466   -1.7137   -8.0783 C.3       4 UNK        -0.1981 
     24 N          23.5505   -1.4526   -5.9004 N.am      4 UNK        -0.4209 
     25 C          24.3534   -1.0063   -4.9216 C.2       3 UNK         0.4942 
     26 O          25.1873   -0.1178   -5.1027 O.2       3 UNK        -0.5208 
     27 CA         24.2356   -1.6808   -3.5375 C.3       3 UNK         0.0250 
     28 CB         23.8486   -3.1710   -3.6230 C.3       3 UNK        -0.1990 
     29 N          25.4969   -1.5750   -2.8030 N.am      3 UNK        -0.4232 
     30 C          25.9159   -0.5235   -2.0903 C.2       2 UNK         0.4993 
     31 O          25.2078    0.4479   -1.8167 O.2       2 UNK        -0.5286 
     32 CA         27.3810   -0.5787   -1.6095 C.3       2 UNK         0.0209 
     33 CB         27.8719    0.7634   -1.0348 C.3       2 UNK        -0.1931 
     34 N          27.6382   -1.6343   -0.6264 N.am      2 UNK        -0.4546 
     35 C          27.6499   -2.9517   -0.8697 C.2       1 UNK         0.5154 
     36 O          27.3895   -3.4532   -1.9677 O.2       1 UNK        -0.5181 
     37 C          27.9146   -0.4387   -7.7600 C.2       5 UNK         0.5014 
     38 O          28.8027   -0.0430   -8.5147 O.2       5 UNK        -0.5248 
     39 N          27.5240    0.2516   -6.6740 N.am      6 UNK        -0.4434 
     40 CA         28.0656    1.5627   -6.3037 C.3       6 UNK         0.0363 
     41 CB         27.7182    1.8897   -4.8429 C.3       6 UNK        -0.1936 
     42 C          27.5751    2.6796   -7.2355 C.2       6 UNK         0.5081 
     43 O          28.3507    3.5813   -7.5481 O.2       6 UNK        -0.5248 
     44 N          26.3232    2.5822   -7.7080 N.am      7 UNK        -0.4718 
     45 CA         25.7549    3.4848   -8.7160 C.3       7 UNK         0.0273 
     46 CB         24.2290    3.3098   -8.7775 C.3       7 UNK        -0.1935 
     47 C          26.3940    3.2801  -10.1011 C.2       7 UNK         0.5018 
     48 O          26.5691    4.2506  -10.8380 O.2       7 UNK        -0.5186 
     49 N          26.7779    2.0318  -10.4043 N.am      8 UNK        -0.4240 
     50 CA         27.5802    1.6599  -11.5736 C.3       8 UNK         0.0235 
     51 CB         27.4023    0.1554  -11.8395 C.3       8 UNK        -0.2000 
     52 C          29.0783    2.0073  -11.4320 C.2       8 UNK         0.4941 
     53 O          29.8056    1.8913  -12.4190 O.2       8 UNK        -0.5273 
     54 N          29.5138    2.4048  -10.2249 N.am      9 UNK        -0.4262 
     55 CA         30.8895    2.7117   -9.8138 C.3       9 UNK         0.0264 
     56 CB         31.4166    3.9664  -10.5420 C.3       9 UNK        -0.1955 
     57 C          31.8405    1.5026   -9.9243 C.2       9 UNK         0.5031 
     58 O          33.0127    1.6686  -10.2666 O.2       9 UNK        -0.5390 
     59 N          31.3274    0.3060   -9.6126 N.am      10 UNK        -0.4204 
     60 CA         32.0360   -0.9734   -9.6871 C.3       10 UNK         0.0237 
     61 CB         31.0752   -2.0282  -10.2680 C.3       10 UNK        -0.1985 
     62 C          32.6213   -1.4032   -8.3262 C.2       10 UNK         0.4970 
     63 O          32.7949   -2.6009   -8.0966 O.2       10 UNK        -0.4914 
     64 N          32.9230   -0.4324   -7.4521 N.am      11 UNK        -0.4285 
     65 CA         33.4635   -0.6343   -6.0954 C.3       11 UNK         0.1007 
     66 C          34.8557   -1.3295   -6.0274 C.2       11 UNK         0.5703 
     67 N          35.6503   -1.3327   -7.0917 N.am      11 UNK        -0.7361 
     68 O          35.2217   -1.8716   -4.9873 O.2       11 UNK        -0.4986 
     69 C69        33.5017    0.6913   -5.2869 C.3       12 UNK        -0.0947 
     70 S70        31.8989    1.5586   -5.2144 S.3       12 UNK        -0.2240 
     71 C71        31.3313    1.1418   -3.5312 C.3       12 UNK         0.0194 
     72 H72        24.0738   -5.9041    0.1339 H         1 UNK         0.0906 
     73 H73        24.5603   -6.3180    1.7802 H         1 UNK         0.0906 
     74 H74        25.4671   -6.9524    0.4056 H         1 UNK         0.0906 
     75 H75        27.3902   -5.8620    0.0436 H         1 UNK         0.3140 
     76 H76        27.9770   -3.2978    1.2337 H         1 UNK         0.1085 
     77 H77        29.6396   -4.8696   -0.8098 H         1 UNK         0.0836 
     78 H78        29.6511   -5.2025    0.8939 H         1 UNK         0.0836 
     79 H79        32.7932   -2.8432   -0.7626 H         1 UNK         0.0731 
     80 H80        31.9529   -4.2727   -1.2927 H         1 UNK         0.0731 
     81 H81        32.2025   -0.6040   -1.6080 H         1 UNK         0.1312 
     82 H82        29.6919   -0.3916   -5.0742 H         1 UNK         0.1406 
     83 H83        30.1012   -4.0899   -2.9674 H         1 UNK         0.1631 
     84 H84        27.8713   -2.3421   -5.0548 H         1 UNK         0.0717 
     85 H85        28.5106   -3.9407   -4.7469 H         1 UNK         0.0717 
     86 H86        28.1626   -3.6096   -8.6534 H         1 UNK         0.0934 
     87 H87        27.2284   -3.7830   -7.2207 H         1 UNK         0.0934 
     88 H88        27.0987   -1.7528   -9.1956 H         1 UNK         0.0739 
     89 H89        25.5542   -2.4046   -6.8954 H         1 UNK         0.3093 
     90 H90        23.1554    0.1110   -7.2038 H         1 UNK         0.0818 
     91 H91        22.3633   -1.3284   -9.0958 H         1 UNK         0.0819 
     92 H92        22.7049   -2.7709   -8.1507 H         1 UNK         0.0819 
     93 H93        21.4575   -1.6384   -7.6260 H         1 UNK         0.0819 
     94 H94        22.8984   -2.1913   -5.6787 H         1 UNK         0.3041 
     95 H95        23.4576   -1.1526   -2.9827 H         1 UNK         0.0784 
     96 H96        22.8442   -3.3051   -4.0259 H         1 UNK         0.0793 
     97 H97        24.5401   -3.7351   -4.2507 H         1 UNK         0.0793 
     98 H98        23.8518   -3.6329   -2.6351 H         1 UNK         0.0793 
     99 H99        26.1412   -2.3576   -2.8810 H         1 UNK         0.3024 
    100 H100       27.9857   -0.7933   -2.4910 H         1 UNK         0.1171 
    101 H101       27.7077    1.5777   -1.7415 H         1 UNK         0.0786 
    102 H102       27.3508    1.0230   -0.1127 H         1 UNK         0.0786 
    103 H103       28.9411    0.7339   -0.8228 H         1 UNK         0.0786 
    104 H104       27.8477   -1.3201    0.3100 H         1 UNK         0.2977 
    105 H105       26.7358   -0.0771   -6.1190 H         1 UNK         0.3127 
    106 H106       29.1525    1.5173   -6.3923 H         1 UNK         0.0770 
    107 H107       28.2190    2.8039   -4.5221 H         1 UNK         0.0814 
    108 H108       26.6474    2.0408   -4.7024 H         1 UNK         0.0814 
    109 H109       28.0320    1.0946   -4.1695 H         1 UNK         0.0814 
    110 H110       25.7577    1.7930   -7.4275 H         1 UNK         0.2983 
    111 H111       25.9651    4.5113   -8.4066 H         1 UNK         0.0947 
    112 H112       23.9441    2.3118   -9.1102 H         1 UNK         0.0806 
    113 H113       23.7865    4.0211   -9.4762 H         1 UNK         0.0806 
    114 H114       23.7693    3.4841   -7.8046 H         1 UNK         0.0806 
    115 H115       26.5237    1.2876   -9.7646 H         1 UNK         0.3000 
    116 H116       27.1993    2.2067  -12.4388 H         1 UNK         0.0850 
    117 H117       27.8859   -0.1340  -12.7734 H         1 UNK         0.0810 
    118 H118       26.3494   -0.1155  -11.9216 H         1 UNK         0.0810 
    119 H119       27.8457   -0.4480  -11.0478 H         1 UNK         0.0810 
    120 H120       28.8299    2.4596   -9.4815 H         1 UNK         0.3040 
    121 H121       30.8365    2.9505   -8.7505 H         1 UNK         0.0766 
    122 H122       32.3799    4.2780  -10.1366 H         1 UNK         0.0812 
    123 H123       30.7316    4.8067  -10.4285 H         1 UNK         0.0812 
    124 H124       31.5562    3.7876  -11.6085 H         1 UNK         0.0812 
    125 H125       30.3636    0.2568   -9.2754 H         1 UNK         0.3205 
    126 H126       32.8791   -0.8838  -10.3749 H         1 UNK         0.0754 
    127 H127       31.5786   -2.9841  -10.4177 H         1 UNK         0.0769 
    128 H128       30.6834   -1.7152  -11.2361 H         1 UNK         0.0769 
    129 H129       30.2268   -2.2044   -9.6069 H         1 UNK         0.0769 
    130 H130       32.7576    0.5250   -7.7214 H         1 UNK         0.2981 
    131 H131       32.7703   -1.3088   -5.5894 H         1 UNK         0.0541 
    132 H132       36.5482   -1.7867   -7.0363 H         1 UNK         0.3459 
    133 H133       35.3593   -0.8898   -7.9482 H         1 UNK         0.3459 
    134 H134       34.2260    1.3784   -5.7281 H         1 UNK         0.0612 
    135 H135       33.8456    0.5073   -4.2672 H         1 UNK         0.0612 
    136 H136       30.4392    1.7280   -3.3085 H         1 UNK         0.0624 
    137 H137       32.0910    1.4524   -2.8125 H         1 UNK         0.0624 
@<TRIPOS>BOND
     1    1    2 1    
     2    1   72 1    
     3    1   73 1    
     4    1   74 1    
     5    2    3 2    
     6    2    4 am   BACKBONE|DICT|INTERRES
     7    4    5 1    
     8    4   75 1    
     9    5    6 1    
    10    5   35 1    
    11    5   76 1    
    12    6    7 1    
    13    6   77 1    
    14    6   78 1    
    15    7    8 1    
    16    8    9 1    
    17    8   79 1    
    18    8   80 1    
    19    9   10 ar   
    20    9   14 ar   
    21   10   11 ar   
    22   10   81 1    
    23   11   12 ar   
    24   11   71 1    
    25   12   13 ar   
    26   12   82 1    
    27   13   14 ar   
    28   13   15 1    
    29   14   83 1    
    30   15   16 1    
    31   15   84 1    
    32   15   85 1    
    33   16   17 1    
    34   17   18 1    
    35   17   86 1    
    36   17   87 1    
    37   18   19 1    
    38   18   37 1    
    39   18   88 1    
    40   19   20 am   BACKBONE|DICT|INTERRES
    41   19   89 1    
    42   20   21 2    
    43   20   22 1    
    44   22   23 1    
    45   22   24 1    
    46   22   90 1    
    47   23   91 1    
    48   23   92 1    
    49   23   93 1    
    50   24   25 am   BACKBONE|DICT|INTERRES
    51   24   94 1    
    52   25   26 2    
    53   25   27 1    
    54   27   28 1    
    55   27   29 1    
    56   27   95 1    
    57   28   96 1    
    58   28   97 1    
    59   28   98 1    
    60   29   30 am   BACKBONE|DICT|INTERRES
    61   29   99 1    
    62   30   31 2    
    63   30   32 1    
    64   32   33 1    
    65   32   34 1    
    66   32  100 1    
    67   33  101 1    
    68   33  102 1    
    69   33  103 1    
    70   34   35 am   BACKBONE|DICT|INTERRES
    71   34  104 1    
    72   35   36 2    
    73   37   38 2    
    74   37   39 am   BACKBONE|DICT|INTERRES
    75   39   40 1    
    76   39  105 1    
    77   40   41 1    
    78   40   42 1    
    79   40  106 1    
    80   41  107 1    
    81   41  108 1    
    82   41  109 1    
    83   42   43 2    
    84   42   44 am   BACKBONE|DICT|INTERRES
    85   44   45 1    
    86   44  110 1    
    87   45   46 1    
    88   45   47 1    
    89   45  111 1    
    90   46  112 1    
    91   46  113 1    
    92   46  114 1    
    93   47   48 2    
    94   47   49 am   BACKBONE|DICT|INTERRES
    95   49   50 1    
    96   49  115 1    
    97   50   51 1    
    98   50   52 1    
    99   50  116 1    
   100   51  117 1    
   101   51  118 1    
   102   51  119 1    
   103   52   53 2    
   104   52   54 am   BACKBONE|DICT|INTERRES
   105   54   55 1    
   106   54  120 1    
   107   55   56 1    
   108   55   57 1    
   109   55  121 1    
   110   56  122 1    
   111   56  123 1    
   112   56  124 1    
   113   57   58 2    
   114   57   59 am   BACKBONE|DICT|INTERRES
   115   59   60 1    
   116   59  125 1    
   117   60   61 1    
   118   60   62 1    
   119   60  126 1    
   120   61  127 1    
   121   61  128 1    
   122   61  129 1    
   123   62   63 2    
   124   62   64 am   BACKBONE|DICT|INTERRES
   125   64   65 1    
   126   64  130 1    
   127   65   66 1    
   128   65   69 1    
   129   65  131 1    
   130   66   67 am   BACKBONE|DICT|INTERRES
   131   66   68 2    
   132   67  132 1    
   133   67  133 1    
   134   69   70 1    
   135   69  134 1    
   136   69  135 1    
   137   70   71 1    
   138   71  136 1    
   139   71  137 1    
@<TRIPOS>SUBSTRUCTURE
     1 UNK         1 GROUP             0       ****    0 ROOT    
