@<TRIPOS>MOLECULE
3R137
137   139    1
SMALL
USER_CHARGES


@<TRIPOS>ATOM
      1 CA         23.6678   -5.9323   -3.9373 C.3       0 UNK        -0.2020 
      2 C          24.5833   -4.9600   -3.2100 C.2       0 UNK         0.4855 
      3 O          24.8034   -3.8522   -3.6979 O.2       0 UNK        -0.5197 
      4 N          25.1113   -5.3617   -2.0454 N.am      1 UNK        -0.4892 
      5 CA         26.0247   -4.5849   -1.1908 C.3       1 UNK         0.0835 
      6 C6         27.4332   -4.3756   -1.8268 C.3       12 UNK        -0.0855 
      7 S7         28.1889   -5.8904   -2.5183 S.3       12 UNK        -0.2931 
      8 C8         29.9692   -5.4906   -2.4833 C.3       12 UNK         0.0378 
      9 C9         30.2876   -4.1927   -3.2149 C.ar      12 UNK        -0.0802 
     10 C10        30.4045   -4.1669   -4.6096 C.ar      12 UNK        -0.0944 
     11 C11        30.6674   -2.9648   -5.2763 C.ar      12 UNK        -0.0787 
     12 C12        30.8119   -1.7880   -4.5353 C.ar      12 UNK        -0.0862 
     13 C13        30.7060   -1.8017   -3.1429 C.ar      12 UNK        -0.0733 
     14 C14        30.4569   -3.0100   -2.4888 C.ar      12 UNK        -0.0832 
     15 C15        30.8500   -0.5200   -2.3350 C.3       12 UNK         0.0240 
     16 S16        29.2282    0.0650   -1.7480 S.3       12 UNK        -0.2522 
     17 C17        28.9107    1.5199   -2.8066 C.3       12 UNK        -0.0967 
     18 CA         28.7282    1.1973   -4.3102 C.3       5 UNK         0.0660 
     19 N          27.7875    0.0981   -4.5478 N.am      5 UNK        -0.4015 
     20 C          27.5982   -0.4903   -5.7366 C.2       4 UNK         0.4946 
     21 O          28.2324   -0.1917   -6.7440 O.2       4 UNK        -0.5353 
     22 CA         26.4765   -1.5327   -5.8578 C.3       4 UNK         0.0277 
     23 CB         27.0559   -2.9538   -5.8108 C.3       4 UNK        -0.1981 
     24 N          25.4123   -1.3883   -4.8592 N.am      4 UNK        -0.4209 
     25 C          24.6410   -0.3013   -4.7032 C.2       3 UNK         0.4942 
     26 O          24.7491    0.7170   -5.3903 O.2       3 UNK        -0.5208 
     27 CA         23.6303   -0.3327   -3.5461 C.3       3 UNK         0.0250 
     28 CB         22.4130   -1.2038   -3.8947 C.3       3 UNK        -0.1990 
     29 N          24.2394   -0.7955   -2.2950 N.am      3 UNK        -0.4232 
     30 C          25.1557   -0.1089   -1.5979 C.2       2 UNK         0.4993 
     31 O          25.5475    1.0122   -1.9201 O.2       2 UNK        -0.5286 
     32 CA         25.7756   -0.7826   -0.3594 C.3       2 UNK         0.0209 
     33 CB         24.8946   -0.5954    0.8923 C.3       2 UNK        -0.1931 
     34 N          26.1567   -2.1864   -0.5841 N.am      2 UNK        -0.4546 
     35 C          25.3619   -3.2578   -0.7324 C.2       1 UNK         0.5154 
     36 O          24.1399   -3.2160   -0.5656 O.2       1 UNK        -0.5181 
     37 C          28.3723    2.4707   -5.1092 C.2       5 UNK         0.5014 
     38 O          29.2755    3.2469   -5.4247 O.2       5 UNK        -0.5248 
     39 N          27.0846    2.6524   -5.4377 N.am      6 UNK        -0.4434 
     40 CA         26.5985    3.6988   -6.3333 C.3       6 UNK         0.0363 
     41 CB         25.3144    4.3128   -5.7509 C.3       6 UNK        -0.1936 
     42 C          26.3396    3.1375   -7.7395 C.2       6 UNK         0.5081 
     43 O          26.7528    3.7560   -8.7204 O.2       6 UNK        -0.5248 
     44 N          25.6440    1.9931   -7.8209 N.am      7 UNK        -0.4718 
     45 CA         25.1577    1.4131   -9.0774 C.3       7 UNK         0.0273 
     46 CB         24.0591    0.3825   -8.7701 C.3       7 UNK        -0.1935 
     47 C          26.2478    0.7967   -9.9727 C.2       7 UNK         0.5018 
     48 O          26.0556    0.7475  -11.1884 O.2       7 UNK        -0.5186 
     49 N          27.3571    0.3398   -9.3806 N.am      8 UNK        -0.4240 
     50 CA         28.4934   -0.2711  -10.0663 C.3       8 UNK         0.0235 
     51 CB         28.4803   -1.7928   -9.8258 C.3       8 UNK        -0.2000 
     52 C          29.7823    0.4073   -9.5835 C.2       8 UNK         0.4941 
     53 O          30.6832   -0.2530   -9.0632 O.2       8 UNK        -0.5273 
     54 N          29.8549    1.7314   -9.7880 N.am      9 UNK        -0.4262 
     55 CA         30.9456    2.6244   -9.3680 C.3       9 UNK         0.0264 
     56 CB         30.6097    4.0595   -9.8044 C.3       9 UNK        -0.1955 
     57 C          32.3621    2.2318   -9.8409 C.2       9 UNK         0.5031 
     58 O          33.3390    2.7128   -9.2647 O.2       9 UNK        -0.5390 
     59 N          32.4591    1.3330  -10.8320 N.am      10 UNK        -0.4204 
     60 CA         33.6822    0.6554  -11.2743 C.3       10 UNK         0.0237 
     61 CB         33.3419   -0.2718  -12.4524 C.3       10 UNK        -0.1985 
     62 C          34.4132   -0.1311  -10.1647 C.2       10 UNK         0.4970 
     63 O          35.6191   -0.3470  -10.2942 O.2       10 UNK        -0.4914 
     64 N          33.7032   -0.5122   -9.0909 N.am      11 UNK        -0.4285 
     65 CA         34.2972   -1.0080   -7.8371 C.3       11 UNK         0.1007 
     66 C          35.1960    0.0276   -7.0928 C.2       11 UNK         0.5703 
     67 N          35.1055    1.3251   -7.3652 N.am      11 UNK        -0.7361 
     68 O          36.0002   -0.3608   -6.2488 O.2       11 UNK        -0.4986 
     69 C69        33.2175   -1.5546   -6.8679 C.3       12 UNK        -0.0947 
     70 S70        32.4409   -3.1031   -7.4346 S.3       12 UNK        -0.2240 
     71 C71        30.7430   -2.9192   -6.7982 C.3       12 UNK         0.0194 
     72 H72        24.0666   -6.1492   -4.9279 H         1 UNK         0.0906 
     73 H73        23.5617   -6.8742   -3.3997 H         1 UNK         0.0906 
     74 H74        22.6773   -5.4943   -4.0566 H         1 UNK         0.0906 
     75 H75        24.8677   -6.2745   -1.6876 H         1 UNK         0.3140 
     76 H76        26.1586   -5.1741   -0.2822 H         1 UNK         0.1085 
     77 H77        28.1183   -3.9803   -1.0756 H         1 UNK         0.0836 
     78 H78        27.3868   -3.6372   -2.6283 H         1 UNK         0.0836 
     79 H79        30.5248   -6.3119   -2.9381 H         1 UNK         0.0731 
     80 H80        30.3034   -5.4375   -1.4459 H         1 UNK         0.0731 
     81 H81        30.2717   -5.0788   -5.1756 H         1 UNK         0.1312 
     82 H82        30.9977   -0.8579   -5.0491 H         1 UNK         0.1406 
     83 H83        30.3736   -3.0217   -1.4106 H         1 UNK         0.1631 
     84 H84        31.3503    0.2565   -2.9155 H         1 UNK         0.0717 
     85 H85        31.4881   -0.7092   -1.4706 H         1 UNK         0.0717 
     86 H86        28.0194    2.0151   -2.4162 H         1 UNK         0.0934 
     87 H87        29.7288    2.2296   -2.6681 H         1 UNK         0.0934 
     88 H88        29.6943    0.8760   -4.6968 H         1 UNK         0.0739 
     89 H89        27.2257   -0.1894   -3.7605 H         1 UNK         0.3093 
     90 H90        26.0206   -1.3955   -6.8384 H         1 UNK         0.0818 
     91 H91        27.5474   -3.1589   -4.8605 H         1 UNK         0.0819 
     92 H92        26.2824   -3.7066   -5.9611 H         1 UNK         0.0819 
     93 H93        27.7972   -3.0967   -6.5966 H         1 UNK         0.0819 
     94 H94        25.2148   -2.2138   -4.2918 H         1 UNK         0.3041 
     95 H95        23.2782    0.6894   -3.3903 H         1 UNK         0.0784 
     96 H96        21.9420   -0.8625   -4.8177 H         1 UNK         0.0793 
     97 H97        22.6852   -2.2500   -4.0357 H         1 UNK         0.0793 
     98 H98        21.6575   -1.1588   -3.1102 H         1 UNK         0.0793 
     99 H99        23.9812   -1.7178   -1.9585 H         1 UNK         0.3024 
    100 H100       26.7114   -0.2563   -0.1640 H         1 UNK         0.1171 
    101 H101       25.3472   -1.0582    1.7692 H         1 UNK         0.0786 
    102 H102       24.7655    0.4644    1.1156 H         1 UNK         0.0786 
    103 H103       23.8976   -1.0173    0.7653 H         1 UNK         0.0786 
    104 H104       27.1441   -2.3211   -0.7508 H         1 UNK         0.2977 
    105 H105       26.4058    1.9522   -5.1582 H         1 UNK         0.3127 
    106 H106       27.3388    4.4968   -6.4237 H         1 UNK         0.0770 
    107 H107       24.5276    3.5683   -5.6222 H         1 UNK         0.0814 
    108 H108       24.9231    5.0923   -6.4060 H         1 UNK         0.0814 
    109 H109       25.5021    4.7702   -4.7794 H         1 UNK         0.0814 
    110 H110       25.3246    1.5486   -6.9630 H         1 UNK         0.2983 
    111 H111       24.6997    2.2202   -9.6539 H         1 UNK         0.0947 
    112 H112       24.4386   -0.4571   -8.1897 H         1 UNK         0.0806 
    113 H113       23.6365   -0.0235   -9.6902 H         1 UNK         0.0806 
    114 H114       23.2394    0.8319   -8.2091 H         1 UNK         0.0806 
    115 H115       27.4649    0.4174   -8.3712 H         1 UNK         0.3000 
    116 H116       28.4341   -0.0981  -11.1429 H         1 UNK         0.0850 
    117 H117       27.5809   -2.2496  -10.2383 H         1 UNK         0.0810 
    118 H118       28.5173   -2.0308   -8.7632 H         1 UNK         0.0810 
    119 H119       29.3372   -2.2733  -10.2995 H         1 UNK         0.0810 
    120 H120       29.0550    2.1816  -10.2108 H         1 UNK         0.3040 
    121 H121       30.9659    2.5990   -8.2763 H         1 UNK         0.0766 
    122 H122       31.3789    4.7597   -9.4751 H         1 UNK         0.0812 
    123 H123       29.6656    4.3945   -9.3731 H         1 UNK         0.0812 
    124 H124       30.5342    4.1439  -10.8891 H         1 UNK         0.0812 
    125 H125       31.5949    0.9937  -11.2269 H         1 UNK         0.3205 
    126 H126       34.3698    1.4260  -11.6283 H         1 UNK         0.0754 
    127 H127       34.2365   -0.7706  -12.8284 H         1 UNK         0.0769 
    128 H128       32.9103    0.2841  -13.2851 H         1 UNK         0.0769 
    129 H129       32.6335   -1.0489  -12.1616 H         1 UNK         0.0769 
    130 H130       32.7010   -0.3468   -9.0737 H         1 UNK         0.2981 
    131 H131       34.9577   -1.8356   -8.1022 H         1 UNK         0.0541 
    132 H132       34.4552    1.6793   -8.0601 H         1 UNK         0.3459 
    133 H133       35.7017    1.9691   -6.8711 H         1 UNK         0.3459 
    134 H134       33.6351   -1.7597   -5.8801 H         1 UNK         0.0612 
    135 H135       32.4505   -0.7924   -6.7283 H         1 UNK         0.0612 
    136 H136       30.3200   -1.9820   -7.1590 H         1 UNK         0.0624 
    137 H137       30.1271   -3.7119   -7.2245 H         1 UNK         0.0624 
@<TRIPOS>BOND
     1    1    2 1    
     2    1   72 1    
     3    1   73 1    
     4    1   74 1    
     5    2    3 2    
     6    2    4 am   BACKBONE|DICT|INTERRES
     7    4    5 1    
     8    4   75 1    
     9    5    6 1    
    10    5   35 1    
    11    5   76 1    
    12    6    7 1    
    13    6   77 1    
    14    6   78 1    
    15    7    8 1    
    16    8    9 1    
    17    8   79 1    
    18    8   80 1    
    19    9   10 ar   
    20    9   14 ar   
    21   10   11 ar   
    22   10   81 1    
    23   11   12 ar   
    24   11   71 1    
    25   12   13 ar   
    26   12   82 1    
    27   13   14 ar   
    28   13   15 1    
    29   14   83 1    
    30   15   16 1    
    31   15   84 1    
    32   15   85 1    
    33   16   17 1    
    34   17   18 1    
    35   17   86 1    
    36   17   87 1    
    37   18   19 1    
    38   18   37 1    
    39   18   88 1    
    40   19   20 am   BACKBONE|DICT|INTERRES
    41   19   89 1    
    42   20   21 2    
    43   20   22 1    
    44   22   23 1    
    45   22   24 1    
    46   22   90 1    
    47   23   91 1    
    48   23   92 1    
    49   23   93 1    
    50   24   25 am   BACKBONE|DICT|INTERRES
    51   24   94 1    
    52   25   26 2    
    53   25   27 1    
    54   27   28 1    
    55   27   29 1    
    56   27   95 1    
    57   28   96 1    
    58   28   97 1    
    59   28   98 1    
    60   29   30 am   BACKBONE|DICT|INTERRES
    61   29   99 1    
    62   30   31 2    
    63   30   32 1    
    64   32   33 1    
    65   32   34 1    
    66   32  100 1    
    67   33  101 1    
    68   33  102 1    
    69   33  103 1    
    70   34   35 am   BACKBONE|DICT|INTERRES
    71   34  104 1    
    72   35   36 2    
    73   37   38 2    
    74   37   39 am   BACKBONE|DICT|INTERRES
    75   39   40 1    
    76   39  105 1    
    77   40   41 1    
    78   40   42 1    
    79   40  106 1    
    80   41  107 1    
    81   41  108 1    
    82   41  109 1    
    83   42   43 2    
    84   42   44 am   BACKBONE|DICT|INTERRES
    85   44   45 1    
    86   44  110 1    
    87   45   46 1    
    88   45   47 1    
    89   45  111 1    
    90   46  112 1    
    91   46  113 1    
    92   46  114 1    
    93   47   48 2    
    94   47   49 am   BACKBONE|DICT|INTERRES
    95   49   50 1    
    96   49  115 1    
    97   50   51 1    
    98   50   52 1    
    99   50  116 1    
   100   51  117 1    
   101   51  118 1    
   102   51  119 1    
   103   52   53 2    
   104   52   54 am   BACKBONE|DICT|INTERRES
   105   54   55 1    
   106   54  120 1    
   107   55   56 1    
   108   55   57 1    
   109   55  121 1    
   110   56  122 1    
   111   56  123 1    
   112   56  124 1    
   113   57   58 2    
   114   57   59 am   BACKBONE|DICT|INTERRES
   115   59   60 1    
   116   59  125 1    
   117   60   61 1    
   118   60   62 1    
   119   60  126 1    
   120   61  127 1    
   121   61  128 1    
   122   61  129 1    
   123   62   63 2    
   124   62   64 am   BACKBONE|DICT|INTERRES
   125   64   65 1    
   126   64  130 1    
   127   65   66 1    
   128   65   69 1    
   129   65  131 1    
   130   66   67 am   BACKBONE|DICT|INTERRES
   131   66   68 2    
   132   67  132 1    
   133   67  133 1    
   134   69   70 1    
   135   69  134 1    
   136   69  135 1    
   137   70   71 1    
   138   71  136 1    
   139   71  137 1    
@<TRIPOS>SUBSTRUCTURE
     1 UNK         1 GROUP             0       ****    0 ROOT    
