@<TRIPOS>MOLECULE
3R137
137   139    1
SMALL
USER_CHARGES


@<TRIPOS>ATOM
      1 CA         22.6635   -4.7891   -1.5685 C.3       0 UNK        -0.2020 
      2 C          24.0594   -4.3327   -1.9632 C.2       0 UNK         0.4855 
      3 O          24.2596   -3.9054   -3.1003 O.2       0 UNK        -0.5197 
      4 N          25.0184   -4.4035   -1.0270 N.am      1 UNK        -0.4892 
      5 CA         26.4328   -4.0385   -1.2004 C.3       1 UNK         0.0835 
      6 C6         27.1861   -5.0633   -2.0907 C.3       12 UNK        -0.0855 
      7 S7         28.9983   -5.0278   -1.8501 S.3       12 UNK        -0.2931 
      8 C8         29.5927   -4.7909   -3.5605 C.3       12 UNK         0.0378 
      9 C9         30.7096   -3.7617   -3.6757 C.ar      12 UNK        -0.0802 
     10 C10        31.8372   -4.0384   -4.4545 C.ar      12 UNK        -0.0944 
     11 C11        32.8200   -3.0629   -4.6559 C.ar      12 UNK        -0.0787 
     12 C12        32.6849   -1.8154   -4.0387 C.ar      12 UNK        -0.0862 
     13 C13        31.5747   -1.5328   -3.2396 C.ar      12 UNK        -0.0733 
     14 C14        30.5891   -2.5082   -3.0675 C.ar      12 UNK        -0.0832 
     15 C15        31.4533   -0.1805   -2.5515 C.3       12 UNK         0.0240 
     16 S16        30.7310    1.0866   -3.6422 S.3       12 UNK        -0.2522 
     17 C17        28.9672    0.6164   -3.6529 C.3       12 UNK        -0.0967 
     18 CA         28.4252    0.4153   -5.0915 C.3       5 UNK         0.0660 
     19 N          27.4172   -0.6514   -5.1594 N.am      5 UNK        -0.4015 
     20 C          26.8908   -1.1359   -6.2949 C.2       4 UNK         0.4946 
     21 O          27.2322   -0.7756   -7.4198 O.2       4 UNK        -0.5353 
     22 CA         25.7473   -2.1562   -6.1624 C.3       4 UNK         0.0277 
     23 CB         26.2952   -3.5712   -5.9414 C.3       4 UNK        -0.1981 
     24 N          24.8108   -1.8100   -5.0917 N.am      4 UNK        -0.4209 
     25 C          24.0372   -0.7147   -5.1028 C.2       3 UNK         0.4942 
     26 O          23.9723    0.0670   -6.0514 O.2       3 UNK        -0.5208 
     27 CA         23.2576   -0.4018   -3.8163 C.3       3 UNK         0.0250 
     28 CB         21.9789   -1.2492   -3.7201 C.3       3 UNK        -0.1990 
     29 N          24.0806   -0.5852   -2.6175 N.am      3 UNK        -0.4232 
     30 C          25.1475    0.1701   -2.3160 C.2       2 UNK         0.4993 
     31 O          25.5202    1.1256   -2.9946 O.2       2 UNK        -0.5286 
     32 CA         25.9613   -0.2194   -1.0713 C.3       2 UNK         0.0209 
     33 CB         25.4176    0.4990    0.1736 C.3       2 UNK        -0.1931 
     34 N          25.9996   -1.6637   -0.8266 N.am      2 UNK        -0.4546 
     35 C          26.5766   -2.5615   -1.6391 C.2       1 UNK         0.5154 
     36 O          27.1295   -2.2570   -2.6987 O.2       1 UNK        -0.5181 
     37 C          27.9222    1.7535   -5.6788 C.2       5 UNK         0.5014 
     38 O          28.6951    2.4676   -6.3160 O.2       5 UNK        -0.5248 
     39 N          26.6417    2.0805   -5.4534 N.am      6 UNK        -0.4434 
     40 CA         25.9777    3.2475   -6.0351 C.3       6 UNK         0.0363 
     41 CB         24.6565    3.5149   -5.2965 C.3       6 UNK        -0.1936 
     42 C          25.7395    3.0928   -7.5470 C.2       6 UNK         0.5081 
     43 O          25.8993    4.0668   -8.2832 O.2       6 UNK        -0.5248 
     44 N          25.3612    1.8826   -7.9829 N.am      7 UNK        -0.4718 
     45 CA         25.1273    1.5419   -9.3881 C.3       7 UNK         0.0273 
     46 CB         24.3906    0.1957   -9.4778 C.3       7 UNK        -0.1935 
     47 C          26.4186    1.5154  -10.2236 C.2       7 UNK         0.5018 
     48 O          26.4318    2.0656  -11.3259 O.2       7 UNK        -0.5186 
     49 N          27.4717    0.8854   -9.6906 N.am      8 UNK        -0.4240 
     50 CA         28.7905    0.7758  -10.3045 C.3       8 UNK         0.0235 
     51 CB         29.0492   -0.6928  -10.6875 C.3       8 UNK        -0.2000 
     52 C          29.8201    1.2910   -9.2951 C.2       8 UNK         0.4941 
     53 O          30.1852    0.5579   -8.3736 O.2       8 UNK        -0.5273 
     54 N          30.2510    2.5476   -9.4775 N.am      9 UNK        -0.4262 
     55 CA         31.2044    3.2612   -8.6215 C.3       9 UNK         0.0264 
     56 CB         31.4350    4.6740   -9.1854 C.3       9 UNK        -0.1955 
     57 C          32.5324    2.5002   -8.4658 C.2       9 UNK         0.5031 
     58 O          33.2886    2.3995   -9.4343 O.2       9 UNK        -0.5390 
     59 N          32.7574    1.9579   -7.2600 N.am      10 UNK        -0.4204 
     60 CA         33.8729    1.0834   -6.8721 C.3       10 UNK         0.0237 
     61 CB         35.2193    1.8376   -6.9320 C.3       10 UNK        -0.1985 
     62 C          33.9023   -0.2645   -7.6281 C.2       10 UNK         0.4970 
     63 O          34.9742   -0.8574   -7.7592 O.2       10 UNK        -0.4914 
     64 N          32.7255   -0.7251   -8.0742 N.am      11 UNK        -0.4285 
     65 CA         32.4472   -1.9853   -8.7752 C.3       11 UNK         0.1007 
     66 C          33.3170   -2.2706  -10.0383 C.2       11 UNK         0.5703 
     67 N          33.4466   -3.5218  -10.4600 N.am      11 UNK        -0.7361 
     68 O          33.8111   -1.3564  -10.6955 O.2       11 UNK        -0.4986 
     69 C69        32.1975   -3.1690   -7.7927 C.3       12 UNK        -0.0947 
     70 S70        33.6582   -4.0802   -7.1652 S.3       12 UNK        -0.2240 
     71 C71        34.0344   -3.3378   -5.5359 C.3       12 UNK         0.0194 
     72 H72        22.3238   -5.5749   -2.2426 H         1 UNK         0.0906 
     73 H73        22.6325   -5.1789   -0.5513 H         1 UNK         0.0906 
     74 H74        21.9631   -3.9573   -1.6356 H         1 UNK         0.0906 
     75 H75        24.7758   -4.7519   -0.1089 H         1 UNK         0.3140 
     76 H76        26.8742   -4.0942   -0.2036 H         1 UNK         0.1085 
     77 H77        26.9120   -4.9415   -3.1377 H         1 UNK         0.0836 
     78 H78        26.8640   -6.0728   -1.8304 H         1 UNK         0.0836 
     79 H79        28.7849   -4.4574   -4.2084 H         1 UNK         0.0731 
     80 H80        29.9142   -5.7588   -3.9480 H         1 UNK         0.0731 
     81 H81        31.9362   -5.0013   -4.9368 H         1 UNK         0.1312 
     82 H82        33.4453   -1.0595   -4.1779 H         1 UNK         0.1406 
     83 H83        29.7207   -2.2959   -2.4609 H         1 UNK         0.1631 
     84 H84        32.4421    0.1558   -2.2359 H         1 UNK         0.0717 
     85 H85        30.8596   -0.2628   -1.6396 H         1 UNK         0.0717 
     86 H86        28.8506   -0.2981   -3.0757 H         1 UNK         0.0934 
     87 H87        28.3956    1.3669   -3.1025 H         1 UNK         0.0934 
     88 H88        29.2456    0.0774   -5.7294 H         1 UNK         0.0739 
     89 H89        27.1218   -1.0614   -4.2781 H         1 UNK         0.3093 
     90 H90        25.1913   -2.1542   -7.1021 H         1 UNK         0.0818 
     91 H91        26.9831   -3.8559   -6.7386 H         1 UNK         0.0819 
     92 H92        26.8358   -3.6357   -5.0005 H         1 UNK         0.0819 
     93 H93        25.4936   -4.3097   -5.9182 H         1 UNK         0.0819 
     94 H94        24.7750   -2.4336   -4.2885 H         1 UNK         0.3041 
     95 H95        22.9621    0.6490   -3.8578 H         1 UNK         0.0784 
     96 H96        21.3330   -1.0719   -4.5812 H         1 UNK         0.0793 
     97 H97        22.1960   -2.3169   -3.6946 H         1 UNK         0.0793 
     98 H98        21.4033   -1.0009   -2.8283 H         1 UNK         0.0793 
     99 H99        23.8643   -1.3730   -2.0253 H         1 UNK         0.3024 
    100 H100       26.9869    0.1168   -1.2380 H         1 UNK         0.1171 
    101 H101       26.0410    0.3068    1.0471 H         1 UNK         0.0786 
    102 H102       25.3997    1.5795    0.0229 H         1 UNK         0.0786 
    103 H103       24.3999    0.1863    0.4106 H         1 UNK         0.0786 
    104 H104       25.5421   -1.9964    0.0103 H         1 UNK         0.2977 
    105 H105       26.0925    1.5069   -4.8189 H         1 UNK         0.3127 
    106 H106       26.6265    4.1137   -5.8881 H         1 UNK         0.0770 
    107 H107       23.9604    2.6818   -5.3959 H         1 UNK         0.0814 
    108 H108       24.1618    4.4026   -5.6925 H         1 UNK         0.0814 
    109 H109       24.8248    3.6834   -4.2326 H         1 UNK         0.0814 
    110 H110       25.1939    1.1508   -7.2992 H         1 UNK         0.2983 
    111 H111       24.4767    2.3097   -9.8128 H         1 UNK         0.0947 
    112 H112       24.9843   -0.6185   -9.0617 H         1 UNK         0.0806 
    113 H113       24.1686   -0.0592  -10.5148 H         1 UNK         0.0806 
    114 H114       23.4427    0.2257   -8.9400 H         1 UNK         0.0806 
    115 H115       27.3779    0.4413   -8.7762 H         1 UNK         0.3000 
    116 H116       28.8548    1.3814  -11.2111 H         1 UNK         0.0850 
    117 H117       30.0474   -0.8159  -11.1091 H         1 UNK         0.0810 
    118 H118       28.3346   -1.0360  -11.4356 H         1 UNK         0.0810 
    119 H119       28.9703   -1.3555   -9.8243 H         1 UNK         0.0810 
    120 H120       29.8921    3.0659  -10.2659 H         1 UNK         0.3040 
    121 H121       30.7460    3.3694   -7.6374 H         1 UNK         0.0766 
    122 H122       30.5083    5.2478   -9.2115 H         1 UNK         0.0812 
    123 H123       31.8421    4.6449  -10.1970 H         1 UNK         0.0812 
    124 H124       32.1410    5.2294   -8.5665 H         1 UNK         0.0812 
    125 H125       32.0382    2.0743   -6.5577 H         1 UNK         0.3205 
    126 H126       33.6932    0.8271   -5.8271 H         1 UNK         0.0754 
    127 H127       36.0208    1.2441   -6.4903 H         1 UNK         0.0769 
    128 H128       35.1733    2.7768   -6.3807 H         1 UNK         0.0769 
    129 H129       35.5116    2.0635   -7.9579 H         1 UNK         0.0769 
    130 H130       31.9067   -0.1311   -7.9687 H         1 UNK         0.2981 
    131 H131       31.4713   -1.7854   -9.2169 H         1 UNK         0.0541 
    132 H132       33.9821   -3.7076  -11.2932 H         1 UNK         0.3459 
    133 H133       33.0581   -4.2849   -9.9284 H         1 UNK         0.3459 
    134 H134       31.5826   -2.8234   -6.9625 H         1 UNK         0.0612 
    135 H135       31.5739   -3.9101   -8.2948 H         1 UNK         0.0612 
    136 H136       34.7026   -4.0127   -5.0000 H         1 UNK         0.0624 
    137 H137       34.6033   -2.4229   -5.6968 H         1 UNK         0.0624 
@<TRIPOS>BOND
     1    1    2 1    
     2    1   72 1    
     3    1   73 1    
     4    1   74 1    
     5    2    3 2    
     6    2    4 am   BACKBONE|DICT|INTERRES
     7    4    5 1    
     8    4   75 1    
     9    5    6 1    
    10    5   35 1    
    11    5   76 1    
    12    6    7 1    
    13    6   77 1    
    14    6   78 1    
    15    7    8 1    
    16    8    9 1    
    17    8   79 1    
    18    8   80 1    
    19    9   10 ar   
    20    9   14 ar   
    21   10   11 ar   
    22   10   81 1    
    23   11   12 ar   
    24   11   71 1    
    25   12   13 ar   
    26   12   82 1    
    27   13   14 ar   
    28   13   15 1    
    29   14   83 1    
    30   15   16 1    
    31   15   84 1    
    32   15   85 1    
    33   16   17 1    
    34   17   18 1    
    35   17   86 1    
    36   17   87 1    
    37   18   19 1    
    38   18   37 1    
    39   18   88 1    
    40   19   20 am   BACKBONE|DICT|INTERRES
    41   19   89 1    
    42   20   21 2    
    43   20   22 1    
    44   22   23 1    
    45   22   24 1    
    46   22   90 1    
    47   23   91 1    
    48   23   92 1    
    49   23   93 1    
    50   24   25 am   BACKBONE|DICT|INTERRES
    51   24   94 1    
    52   25   26 2    
    53   25   27 1    
    54   27   28 1    
    55   27   29 1    
    56   27   95 1    
    57   28   96 1    
    58   28   97 1    
    59   28   98 1    
    60   29   30 am   BACKBONE|DICT|INTERRES
    61   29   99 1    
    62   30   31 2    
    63   30   32 1    
    64   32   33 1    
    65   32   34 1    
    66   32  100 1    
    67   33  101 1    
    68   33  102 1    
    69   33  103 1    
    70   34   35 am   BACKBONE|DICT|INTERRES
    71   34  104 1    
    72   35   36 2    
    73   37   38 2    
    74   37   39 am   BACKBONE|DICT|INTERRES
    75   39   40 1    
    76   39  105 1    
    77   40   41 1    
    78   40   42 1    
    79   40  106 1    
    80   41  107 1    
    81   41  108 1    
    82   41  109 1    
    83   42   43 2    
    84   42   44 am   BACKBONE|DICT|INTERRES
    85   44   45 1    
    86   44  110 1    
    87   45   46 1    
    88   45   47 1    
    89   45  111 1    
    90   46  112 1    
    91   46  113 1    
    92   46  114 1    
    93   47   48 2    
    94   47   49 am   BACKBONE|DICT|INTERRES
    95   49   50 1    
    96   49  115 1    
    97   50   51 1    
    98   50   52 1    
    99   50  116 1    
   100   51  117 1    
   101   51  118 1    
   102   51  119 1    
   103   52   53 2    
   104   52   54 am   BACKBONE|DICT|INTERRES
   105   54   55 1    
   106   54  120 1    
   107   55   56 1    
   108   55   57 1    
   109   55  121 1    
   110   56  122 1    
   111   56  123 1    
   112   56  124 1    
   113   57   58 2    
   114   57   59 am   BACKBONE|DICT|INTERRES
   115   59   60 1    
   116   59  125 1    
   117   60   61 1    
   118   60   62 1    
   119   60  126 1    
   120   61  127 1    
   121   61  128 1    
   122   61  129 1    
   123   62   63 2    
   124   62   64 am   BACKBONE|DICT|INTERRES
   125   64   65 1    
   126   64  130 1    
   127   65   66 1    
   128   65   69 1    
   129   65  131 1    
   130   66   67 am   BACKBONE|DICT|INTERRES
   131   66   68 2    
   132   67  132 1    
   133   67  133 1    
   134   69   70 1    
   135   69  134 1    
   136   69  135 1    
   137   70   71 1    
   138   71  136 1    
   139   71  137 1    
@<TRIPOS>SUBSTRUCTURE
     1 UNK         1 GROUP             0       ****    0 ROOT    
