@<TRIPOS>MOLECULE
3R137
137   139    1
SMALL
USER_CHARGES


@<TRIPOS>ATOM
      1 CA         29.8832   -5.7907   -4.5935 C.3       0 UNK        -0.2020 
      2 C          29.1720   -5.5643   -3.2678 C.2       0 UNK         0.4855 
      3 O          29.0111   -6.5050   -2.4901 O.2       0 UNK        -0.5197 
      4 N          28.7343   -4.3290   -3.0078 N.am      1 UNK        -0.4892 
      5 CA         27.9435   -3.9345   -1.8441 C.3       1 UNK         0.0835 
      6 C6         28.8153   -3.7636   -0.5532 C.3       12 UNK        -0.0855 
      7 S7         28.9459   -2.1117    0.2326 S.3       12 UNK        -0.2931 
      8 C8         30.6619   -1.6337   -0.1434 C.3       12 UNK         0.0378 
      9 C9         30.8117   -1.1811   -1.5868 C.ar      12 UNK        -0.0802 
     10 C10        31.2702   -2.0701   -2.5624 C.ar      12 UNK        -0.0944 
     11 C11        31.4015   -1.6556   -3.8902 C.ar      12 UNK        -0.0787 
     12 C12        31.0559   -0.3486   -4.2418 C.ar      12 UNK        -0.0862 
     13 C13        30.6167    0.5584   -3.2727 C.ar      12 UNK        -0.0733 
     14 C14        30.5045    0.1358   -1.9434 C.ar      12 UNK        -0.0832 
     15 C15        30.2921    1.9953   -3.6720 C.3       12 UNK         0.0240 
     16 S16        28.6917    2.6081   -3.0389 S.3       12 UNK        -0.2522 
     17 C17        27.5373    1.2776   -3.5083 C.3       12 UNK        -0.0967 
     18 CA         27.2739    1.1836   -5.0320 C.3       5 UNK         0.0660 
     19 N          26.9768   -0.1992   -5.4263 N.am      5 UNK        -0.4015 
     20 C          26.6890   -0.6389   -6.6614 C.2       4 UNK         0.4946 
     21 O          26.5505    0.0856   -7.6457 O.2       4 UNK        -0.5353 
     22 CA         26.4633   -2.1487   -6.8081 C.3       4 UNK         0.0277 
     23 CB         27.7880   -2.9229   -6.6866 C.3       4 UNK        -0.1981 
     24 N          25.5042   -2.6148   -5.8067 N.am      4 UNK        -0.4209 
     25 C          24.1752   -2.4711   -5.9222 C.2       3 UNK         0.4942 
     26 O          23.6142   -2.0622   -6.9390 O.2       3 UNK        -0.5208 
     27 CA         23.3217   -2.8205   -4.6896 C.3       3 UNK         0.0250 
     28 CB         22.8888   -4.2947   -4.7338 C.3       3 UNK        -0.1990 
     29 N          23.9927   -2.5486   -3.4152 N.am      3 UNK        -0.4232 
     30 C          24.3694   -1.3338   -2.9898 C.2       2 UNK         0.4993 
     31 O          24.1754   -0.2935   -3.6178 O.2       2 UNK        -0.5286 
     32 CA         25.1443   -1.2786   -1.6628 C.3       2 UNK         0.0209 
     33 CB         24.1741   -1.1769   -0.4755 C.3       2 UNK        -0.1931 
     34 N          26.0581   -2.4090   -1.4559 N.am      2 UNK        -0.4546 
     35 C          27.0697   -2.7391   -2.2719 C.2       1 UNK         0.5154 
     36 O          27.2952   -2.1650   -3.3444 O.2       1 UNK        -0.5181 
     37 C          26.2125    2.2099   -5.4797 C.2       5 UNK         0.5014 
     38 O          26.5704    3.3239   -5.8660 O.2       5 UNK        -0.5248 
     39 N          24.9338    1.8058   -5.4524 N.am      6 UNK        -0.4434 
     40 CA         23.7916    2.5698   -5.9585 C.3       6 UNK         0.0363 
     41 CB         22.4978    1.8005   -5.6464 C.3       6 UNK        -0.1936 
     42 C          23.8661    2.9011   -7.4623 C.2       6 UNK         0.5081 
     43 O          23.2775    3.9006   -7.8768 O.2       6 UNK        -0.5248 
     44 N          24.5748    2.0784   -8.2484 N.am      7 UNK        -0.4718 
     45 CA         24.8530    2.3264   -9.6605 C.3       7 UNK         0.0273 
     46 CB         24.8593    0.9997  -10.4403 C.3       7 UNK        -0.1935 
     47 C          26.1812    3.0794   -9.8199 C.2       7 UNK         0.5018 
     48 O          26.1836    4.1618  -10.4083 O.2       7 UNK        -0.5186 
     49 N          27.2782    2.5095   -9.3000 N.am      8 UNK        -0.4240 
     50 CA         28.6391    3.0414   -9.4142 C.3       8 UNK         0.0235 
     51 CB         29.1209    2.9735  -10.8816 C.3       8 UNK        -0.2000 
     52 C          29.5936    2.2368   -8.5243 C.2       8 UNK         0.4941 
     53 O          29.2493    1.1427   -8.0749 O.2       8 UNK        -0.5273 
     54 N          30.8252    2.7358   -8.3536 N.am      9 UNK        -0.4262 
     55 CA         31.9393    2.0237   -7.7136 C.3       9 UNK         0.0264 
     56 CB         33.0103    3.0430   -7.2842 C.3       9 UNK        -0.1955 
     57 C          32.5070    0.9074   -8.6198 C.2       9 UNK         0.5031 
     58 O          33.6926    0.9207   -8.9564 O.2       9 UNK        -0.5390 
     59 N          31.6347   -0.0277   -9.0196 N.am      10 UNK        -0.4204 
     60 CA         31.8693   -1.0782  -10.0164 C.3       10 UNK         0.0237 
     61 CB         30.5566   -1.8452  -10.2463 C.3       10 UNK        -0.1985 
     62 C          33.0094   -2.0536   -9.6779 C.2       10 UNK         0.4970 
     63 O          33.6225   -2.6012  -10.5951 O.2       10 UNK        -0.4914 
     64 N          33.2756   -2.2450   -8.3814 N.am      11 UNK        -0.4285 
     65 CA         34.4083   -3.0234   -7.8633 C.3       11 UNK         0.1007 
     66 C          35.7848   -2.2946   -7.9337 C.2       11 UNK         0.5703 
     67 N          35.8569   -1.0196   -8.3019 N.am      11 UNK        -0.7361 
     68 O          36.8149   -2.9085   -7.6653 O.2       11 UNK        -0.4986 
     69 C69        34.1037   -3.5957   -6.4535 C.3       12 UNK        -0.0947 
     70 S70        33.7182   -2.3185   -5.2072 S.3       12 UNK        -0.2240 
     71 C71        31.9437   -2.6078   -4.9414 C.3       12 UNK         0.0194 
     72 H72        30.9372   -6.0082   -4.4225 H         1 UNK         0.0906 
     73 H73        29.4417   -6.6398   -5.1146 H         1 UNK         0.0906 
     74 H74        29.8112   -4.9234   -5.2488 H         1 UNK         0.0906 
     75 H75        28.8442   -3.5770   -3.6774 H         1 UNK         0.3140 
     76 H76        27.2357   -4.7463   -1.6590 H         1 UNK         0.1085 
     77 H77        29.8220   -4.1498   -0.7188 H         1 UNK         0.0836 
     78 H78        28.4083   -4.4226    0.2152 H         1 UNK         0.0836 
     79 H79        31.3378   -2.4611    0.0783 H         1 UNK         0.0731 
     80 H80        30.9527   -0.8212    0.5241 H         1 UNK         0.0731 
     81 H81        31.5306   -3.0829   -2.2872 H         1 UNK         0.1312 
     82 H82        31.1534   -0.0370   -5.2706 H         1 UNK         0.1406 
     83 H83        30.1622    0.8292   -1.1871 H         1 UNK         0.1631 
     84 H84        30.2966    2.1046   -4.7571 H         1 UNK         0.0717 
     85 H85        31.0841    2.6466   -3.3005 H         1 UNK         0.0717 
     86 H86        27.9457    0.3420   -3.1276 H         1 UNK         0.0934 
     87 H87        26.6059    1.4207   -2.9578 H         1 UNK         0.0934 
     88 H88        28.1919    1.4331   -5.5655 H         1 UNK         0.0739 
     89 H89        27.0595   -0.8918   -4.6860 H         1 UNK         0.3093 
     90 H90        26.0567   -2.3353   -7.8047 H         1 UNK         0.0818 
     91 H91        28.4853   -2.6136   -7.4661 H         1 UNK         0.0819 
     92 H92        28.2810   -2.7525   -5.7301 H         1 UNK         0.0819 
     93 H93        27.6319   -3.9958   -6.7988 H         1 UNK         0.0819 
     94 H94        25.8833   -2.9116   -4.9175 H         1 UNK         0.3041 
     95 H95        22.4248   -2.1983   -4.7284 H         1 UNK         0.0784 
     96 H96        22.3639   -4.5188   -5.6638 H         1 UNK         0.0793 
     97 H97        23.7431   -4.9701   -4.6712 H         1 UNK         0.0793 
     98 H98        22.2092   -4.5341   -3.9157 H         1 UNK         0.0793 
     99 H99        24.1956   -3.3430   -2.8261 H         1 UNK         0.3024 
    100 H100       25.7516   -0.3724   -1.6802 H         1 UNK         0.1171 
    101 H101       24.7096   -1.0277    0.4624 H         1 UNK         0.0786 
    102 H102       23.4967   -0.3302   -0.5968 H         1 UNK         0.0786 
    103 H103       23.5611   -2.0733   -0.3744 H         1 UNK         0.0786 
    104 H104       25.9505   -2.9209   -0.5917 H         1 UNK         0.2977 
    105 H105       24.7219    0.9043   -5.0309 H         1 UNK         0.3127 
    106 H106       23.7672    3.5181   -5.4180 H         1 UNK         0.0770 
    107 H107       22.4915    0.8175   -6.1199 H         1 UNK         0.0814 
    108 H108       21.6219    2.3432   -6.0045 H         1 UNK         0.0814 
    109 H109       22.3717    1.6554   -4.5733 H         1 UNK         0.0814 
    110 H110       25.0859    1.3075   -7.8251 H         1 UNK         0.2983 
    111 H111       24.0635    2.9498  -10.0867 H         1 UNK         0.0947 
    112 H112       25.6320    0.3157  -10.0893 H         1 UNK         0.0806 
    113 H113       25.0403    1.1754  -11.5015 H         1 UNK         0.0806 
    114 H114       23.9003    0.4885  -10.3554 H         1 UNK         0.0806 
    115 H115       27.2008    1.6374   -8.7775 H         1 UNK         0.3000 
    116 H116       28.6389    4.0769   -9.0680 H         1 UNK         0.0850 
    117 H117       30.1452    3.3333  -10.9853 H         1 UNK         0.0810 
    118 H118       28.5085    3.5881  -11.5409 H         1 UNK         0.0810 
    119 H119       29.0959    1.9514  -11.2621 H         1 UNK         0.0810 
    120 H120       31.0516    3.6213   -8.7841 H         1 UNK         0.3040 
    121 H121       31.5659    1.5436   -6.8096 H         1 UNK         0.0766 
    122 H122       32.6003    3.7850   -6.5988 H         1 UNK         0.0812 
    123 H123       33.4322    3.5713   -8.1402 H         1 UNK         0.0812 
    124 H124       33.8344    2.5488   -6.7677 H         1 UNK         0.0812 
    125 H125       30.6760    0.0891   -8.6956 H         1 UNK         0.3205 
    126 H126       32.1415   -0.5795  -10.9488 H         1 UNK         0.0754 
    127 H127       30.6785   -2.6091  -11.0156 H         1 UNK         0.0769 
    128 H128       29.7592   -1.1787  -10.5769 H         1 UNK         0.0769 
    129 H129       30.2192   -2.3466   -9.3385 H         1 UNK         0.0769 
    130 H130       32.7434   -1.7320   -7.6963 H         1 UNK         0.2981 
    131 H131       34.5236   -3.8888   -8.5186 H         1 UNK         0.0541 
    132 H132       35.0257   -0.4854   -8.5339 H         1 UNK         0.3459 
    133 H133       36.7598   -0.5755   -8.3458 H         1 UNK         0.3459 
    134 H134       33.2698   -4.2961   -6.5202 H         1 UNK         0.0612 
    135 H135       34.9458   -4.1862   -6.0883 H         1 UNK         0.0612 
    136 H136       31.4000   -2.4838   -5.8793 H         1 UNK         0.0624 
    137 H137       31.7994   -3.6405   -4.6248 H         1 UNK         0.0624 
@<TRIPOS>BOND
     1    1    2 1    
     2    1   72 1    
     3    1   73 1    
     4    1   74 1    
     5    2    3 2    
     6    2    4 am   BACKBONE|DICT|INTERRES
     7    4    5 1    
     8    4   75 1    
     9    5    6 1    
    10    5   35 1    
    11    5   76 1    
    12    6    7 1    
    13    6   77 1    
    14    6   78 1    
    15    7    8 1    
    16    8    9 1    
    17    8   79 1    
    18    8   80 1    
    19    9   10 ar   
    20    9   14 ar   
    21   10   11 ar   
    22   10   81 1    
    23   11   12 ar   
    24   11   71 1    
    25   12   13 ar   
    26   12   82 1    
    27   13   14 ar   
    28   13   15 1    
    29   14   83 1    
    30   15   16 1    
    31   15   84 1    
    32   15   85 1    
    33   16   17 1    
    34   17   18 1    
    35   17   86 1    
    36   17   87 1    
    37   18   19 1    
    38   18   37 1    
    39   18   88 1    
    40   19   20 am   BACKBONE|DICT|INTERRES
    41   19   89 1    
    42   20   21 2    
    43   20   22 1    
    44   22   23 1    
    45   22   24 1    
    46   22   90 1    
    47   23   91 1    
    48   23   92 1    
    49   23   93 1    
    50   24   25 am   BACKBONE|DICT|INTERRES
    51   24   94 1    
    52   25   26 2    
    53   25   27 1    
    54   27   28 1    
    55   27   29 1    
    56   27   95 1    
    57   28   96 1    
    58   28   97 1    
    59   28   98 1    
    60   29   30 am   BACKBONE|DICT|INTERRES
    61   29   99 1    
    62   30   31 2    
    63   30   32 1    
    64   32   33 1    
    65   32   34 1    
    66   32  100 1    
    67   33  101 1    
    68   33  102 1    
    69   33  103 1    
    70   34   35 am   BACKBONE|DICT|INTERRES
    71   34  104 1    
    72   35   36 2    
    73   37   38 2    
    74   37   39 am   BACKBONE|DICT|INTERRES
    75   39   40 1    
    76   39  105 1    
    77   40   41 1    
    78   40   42 1    
    79   40  106 1    
    80   41  107 1    
    81   41  108 1    
    82   41  109 1    
    83   42   43 2    
    84   42   44 am   BACKBONE|DICT|INTERRES
    85   44   45 1    
    86   44  110 1    
    87   45   46 1    
    88   45   47 1    
    89   45  111 1    
    90   46  112 1    
    91   46  113 1    
    92   46  114 1    
    93   47   48 2    
    94   47   49 am   BACKBONE|DICT|INTERRES
    95   49   50 1    
    96   49  115 1    
    97   50   51 1    
    98   50   52 1    
    99   50  116 1    
   100   51  117 1    
   101   51  118 1    
   102   51  119 1    
   103   52   53 2    
   104   52   54 am   BACKBONE|DICT|INTERRES
   105   54   55 1    
   106   54  120 1    
   107   55   56 1    
   108   55   57 1    
   109   55  121 1    
   110   56  122 1    
   111   56  123 1    
   112   56  124 1    
   113   57   58 2    
   114   57   59 am   BACKBONE|DICT|INTERRES
   115   59   60 1    
   116   59  125 1    
   117   60   61 1    
   118   60   62 1    
   119   60  126 1    
   120   61  127 1    
   121   61  128 1    
   122   61  129 1    
   123   62   63 2    
   124   62   64 am   BACKBONE|DICT|INTERRES
   125   64   65 1    
   126   64  130 1    
   127   65   66 1    
   128   65   69 1    
   129   65  131 1    
   130   66   67 am   BACKBONE|DICT|INTERRES
   131   66   68 2    
   132   67  132 1    
   133   67  133 1    
   134   69   70 1    
   135   69  134 1    
   136   69  135 1    
   137   70   71 1    
   138   71  136 1    
   139   71  137 1    
@<TRIPOS>SUBSTRUCTURE
     1 UNK         1 GROUP             0       ****    0 ROOT    
