@<TRIPOS>MOLECULE
3R137
137   139    1
SMALL
USER_CHARGES


@<TRIPOS>ATOM
      1 CA         29.5870   -0.1956   -3.2045 C.3       0 UNK        -0.2020 
      2 C          30.0181   -0.0380   -1.7495 C.2       0 UNK         0.4855 
      3 O          30.4997    1.0279   -1.3723 O.2       0 UNK        -0.5197 
      4 N          29.8775   -1.0591   -0.8934 N.am      1 UNK        -0.4892 
      5 CA         29.1780   -2.3258   -1.1330 C.3       1 UNK         0.0835 
      6 C6         29.6079   -3.3798   -0.0803 C.3       12 UNK        -0.0855 
      7 S7         29.0710   -5.0803   -0.4757 S.3       12 UNK        -0.2931 
      8 C8         30.5633   -5.7805   -1.2521 C.3       12 UNK         0.0378 
      9 C9         30.8444   -5.1397   -2.6028 C.ar      12 UNK        -0.0802 
     10 C10        31.9496   -4.2989   -2.7744 C.ar      12 UNK        -0.0944 
     11 C11        32.1911   -3.6931   -4.0111 C.ar      12 UNK        -0.0787 
     12 C12        31.3180   -3.9310   -5.0750 C.ar      12 UNK        -0.0862 
     13 C13        30.2148   -4.7737   -4.9187 C.ar      12 UNK        -0.0733 
     14 C14        29.9887   -5.3836   -3.6820 C.ar      12 UNK        -0.0832 
     15 C15        29.2689   -5.0259   -6.0849 C.3       12 UNK         0.0240 
     16 S16        27.6586   -4.2135   -5.8400 S.3       12 UNK        -0.2522 
     17 C17        28.1194   -2.4493   -5.8631 C.3       12 UNK        -0.0967 
     18 CA         27.2807   -1.6200   -6.8653 C.3       5 UNK         0.0660 
     19 N          25.8404   -1.7154   -6.6248 N.am      5 UNK        -0.4015 
     20 C          24.8957   -1.4512   -7.5381 C.2       4 UNK         0.4946 
     21 O          25.1353   -1.1735   -8.7132 O.2       4 UNK        -0.5353 
     22 CA         23.4311   -1.4904   -7.0640 C.3       4 UNK         0.0277 
     23 CB         22.8287   -2.8848   -7.3003 C.3       4 UNK        -0.1981 
     24 N          23.2660   -1.1236   -5.6548 N.am      4 UNK        -0.4209 
     25 C          23.4972    0.0988   -5.1542 C.2       3 UNK         0.4942 
     26 O          23.8245    1.0677   -5.8376 O.2       3 UNK        -0.5208 
     27 CA         23.4072    0.2478   -3.6243 C.3       3 UNK         0.0250 
     28 CB         21.9619    0.5454   -3.1948 C.3       3 UNK        -0.1990 
     29 N          23.9129   -0.9179   -2.8861 N.am      3 UNK        -0.4232 
     30 C          25.1585   -1.4015   -2.9919 C.2       2 UNK         0.4993 
     31 O          26.0084   -0.9274   -3.7498 O.2       2 UNK        -0.5286 
     32 CA         25.4819   -2.6647   -2.1780 C.3       2 UNK         0.0209 
     33 CB         24.9429   -3.9131   -2.8960 C.3       2 UNK        -0.1931 
     34 N          26.9252   -2.8212   -1.9828 N.am      2 UNK        -0.4546 
     35 C          27.6514   -2.0903   -1.1280 C.2       1 UNK         0.5154 
     36 O          27.1619   -1.2680   -0.3481 O.2       1 UNK        -0.5181 
     37 C          27.7108   -0.1436   -6.8465 C.2       5 UNK         0.5014 
     38 O          28.3794    0.2988   -7.7772 O.2       5 UNK        -0.5248 
     39 N          27.2755    0.6004   -5.8169 N.am      6 UNK        -0.4434 
     40 CA         27.5612    2.0271   -5.6219 C.3       6 UNK         0.0363 
     41 CB         26.9863    2.4774   -4.2692 C.3       6 UNK        -0.1936 
     42 C          27.0392    2.9352   -6.7520 C.2       6 UNK         0.5081 
     43 O          27.6256    3.9882   -7.0024 O.2       6 UNK        -0.5248 
     44 N          25.9566    2.5142   -7.4189 N.am      7 UNK        -0.4718 
     45 CA         25.3929    3.1612   -8.6060 C.3       7 UNK         0.0273 
     46 CB         23.9616    2.6390   -8.8160 C.3       7 UNK        -0.1935 
     47 C          26.2286    2.9614   -9.8876 C.2       7 UNK         0.5018 
     48 O          25.9667    3.6497  -10.8756 O.2       7 UNK        -0.5186 
     49 N          27.1893    2.0295   -9.8705 N.am      8 UNK        -0.4240 
     50 CA         28.0753    1.6909  -10.9822 C.3       8 UNK         0.0235 
     51 CB         27.8835    0.1959  -11.3031 C.3       8 UNK        -0.2000 
     52 C          29.5335    1.9906  -10.5989 C.2       8 UNK         0.4941 
     53 O          29.8137    2.4425   -9.4864 O.2       8 UNK        -0.5273 
     54 N          30.4634    1.7009  -11.5170 N.am      9 UNK        -0.4262 
     55 CA         31.9103    1.7731  -11.2894 C.3       9 UNK         0.0264 
     56 CB         32.6176    1.9939  -12.6403 C.3       9 UNK        -0.1955 
     57 C          32.4214    0.5206  -10.5453 C.2       9 UNK         0.5031 
     58 O          33.3042   -0.1769  -11.0492 O.2       9 UNK        -0.5390 
     59 N          31.8389    0.2409   -9.3739 N.am      10 UNK        -0.4204 
     60 CA         32.1213   -0.9244   -8.5403 C.3       10 UNK         0.0237 
     61 CB         31.0398   -1.9957   -8.7828 C.3       10 UNK        -0.1985 
     62 C          32.2159   -0.4611   -7.0808 C.2       10 UNK         0.4970 
     63 O          31.3025   -0.7095   -6.2954 O.2       10 UNK        -0.4914 
     64 N          33.3229    0.2316   -6.7800 N.am      11 UNK        -0.4285 
     65 CA         33.6638    0.8825   -5.5033 C.3       11 UNK         0.1007 
     66 C          32.6061    1.9100   -4.9901 C.2       11 UNK         0.5703 
     67 N          32.5824    2.2173   -3.7006 N.am      11 UNK        -0.7361 
     68 O          31.8562    2.4962   -5.7679 O.2       11 UNK        -0.4986 
     69 C69        34.2622   -0.0974   -4.4430 C.3       12 UNK        -0.0947 
     70 S70        33.0620   -1.1267   -3.5308 S.3       12 UNK        -0.2240 
     71 C71        33.3904   -2.7788   -4.2073 C.3       12 UNK         0.0194 
     72 H72        28.5043   -0.2640   -3.2784 H         1 UNK         0.0906 
     73 H73        29.9083    0.6627   -3.7944 H         1 UNK         0.0906 
     74 H74        30.0325   -1.0801   -3.6590 H         1 UNK         0.0906 
     75 H75        30.1557   -0.9057    0.0651 H         1 UNK         0.3140 
     76 H76        29.4701   -2.6941   -2.1178 H         1 UNK         0.1085 
     77 H77        29.2226   -3.1174    0.9072 H         1 UNK         0.0836 
     78 H78        30.6946   -3.3804    0.0208 H         1 UNK         0.0836 
     79 H79        30.4202   -6.8534   -1.3884 H         1 UNK         0.0731 
     80 H80        31.4140   -5.6695   -0.5777 H         1 UNK         0.0731 
     81 H81        32.6171   -4.1047   -1.9459 H         1 UNK         0.1312 
     82 H82        31.4983   -3.4510   -6.0250 H         1 UNK         0.1406 
     83 H83        29.1327   -6.0326   -3.5531 H         1 UNK         0.1631 
     84 H84        29.1095   -6.0996   -6.1930 H         1 UNK         0.0717 
     85 H85        29.7049   -4.6853   -7.0254 H         1 UNK         0.0717 
     86 H86        28.0163   -2.0698   -4.8475 H         1 UNK         0.0934 
     87 H87        29.1779   -2.3532   -6.1085 H         1 UNK         0.0934 
     88 H88        27.4844   -2.0084   -7.8660 H         1 UNK         0.0739 
     89 H89        25.5662   -1.8819   -5.6667 H         1 UNK         0.3093 
     90 H90        22.8735   -0.7687   -7.6654 H         1 UNK         0.0818 
     91 H91        22.9144   -3.1728   -8.3492 H         1 UNK         0.0819 
     92 H92        23.3349   -3.6503   -6.7106 H         1 UNK         0.0819 
     93 H93        21.7689   -2.9086   -7.0460 H         1 UNK         0.0819 
     94 H94        22.9904   -1.8576   -5.0188 H         1 UNK         0.3041 
     95 H95        24.0264    1.1022   -3.3446 H         1 UNK         0.0784 
     96 H96        21.5725    1.4201   -3.7180 H         1 UNK         0.0793 
     97 H97        21.2935   -0.2886   -3.4123 H         1 UNK         0.0793 
     98 H98        21.9004    0.7565   -2.1270 H         1 UNK         0.0793 
     99 H99        23.2653   -1.3673   -2.2543 H         1 UNK         0.3024 
    100 H100       25.0041   -2.5815   -1.1989 H         1 UNK         0.1171 
    101 H101       25.1728   -4.8210   -2.3378 H         1 UNK         0.0786 
    102 H102       23.8584   -3.8700   -3.0038 H         1 UNK         0.0786 
    103 H103       25.3649   -4.0207   -3.8956 H         1 UNK         0.0786 
    104 H104       27.3930   -3.4786   -2.5898 H         1 UNK         0.2977 
    105 H105       26.7318    0.1410   -5.0883 H         1 UNK         0.3127 
    106 H106       28.6475    2.1382   -5.5918 H         1 UNK         0.0770 
    107 H107       25.9002    2.3854   -4.2470 H         1 UNK         0.0814 
    108 H108       27.2287    3.5226   -4.0724 H         1 UNK         0.0814 
    109 H109       27.3896    1.8918   -3.4437 H         1 UNK         0.0814 
    110 H110       25.4789    1.6860   -7.0819 H         1 UNK         0.2983 
    111 H111       25.3425    4.2359   -8.4188 H         1 UNK         0.0947 
    112 H112       23.9486    1.5613   -8.9852 H         1 UNK         0.0806 
    113 H113       23.4921    3.1121   -9.6795 H         1 UNK         0.0806 
    114 H114       23.3320    2.8494   -7.9512 H         1 UNK         0.0806 
    115 H115       27.4157    1.5671   -8.9939 H         1 UNK         0.3000 
    116 H116       27.8320    2.2824  -11.8671 H         1 UNK         0.0850 
    117 H117       28.4502   -0.1036  -12.1850 H         1 UNK         0.0810 
    118 H118       26.8364   -0.0327  -11.5038 H         1 UNK         0.0810 
    119 H119       28.2054   -0.4373  -10.4747 H         1 UNK         0.0810 
    120 H120       30.1689    1.3106  -12.4009 H         1 UNK         0.3040 
    121 H121       32.1324    2.6360  -10.6575 H         1 UNK         0.0766 
    122 H122       32.2704    2.9063  -13.1255 H         1 UNK         0.0812 
    123 H123       32.4489    1.1631  -13.3267 H         1 UNK         0.0812 
    124 H124       33.6957    2.0920  -12.5055 H         1 UNK         0.0812 
    125 H125       31.1261    0.8790   -9.0271 H         1 UNK         0.3205 
    126 H126       33.0885   -1.3571   -8.8052 H         1 UNK         0.0754 
    127 H127       31.2428   -2.8964   -8.2057 H         1 UNK         0.0769 
    128 H128       31.0049   -2.2887   -9.8322 H         1 UNK         0.0769 
    129 H129       30.0474   -1.6410   -8.5061 H         1 UNK         0.0769 
    130 H130       33.9792    0.4035   -7.5272 H         1 UNK         0.2981 
    131 H131       34.4949    1.5298   -5.7848 H         1 UNK         0.0541 
    132 H132       33.1662    1.7237   -3.0447 H         1 UNK         0.3459 
    133 H133       31.9116    2.8901   -3.3665 H         1 UNK         0.3459 
    134 H134       35.0045   -0.7419   -4.9158 H         1 UNK         0.0612 
    135 H135       34.8218    0.4726   -3.7000 H         1 UNK         0.0612 
    136 H136       34.2709   -3.2011   -3.7214 H         1 UNK         0.0624 
    137 H137       33.6284   -2.6974   -5.2690 H         1 UNK         0.0624 
@<TRIPOS>BOND
     1    1    2 1    
     2    1   72 1    
     3    1   73 1    
     4    1   74 1    
     5    2    3 2    
     6    2    4 am   BACKBONE|DICT|INTERRES
     7    4    5 1    
     8    4   75 1    
     9    5    6 1    
    10    5   35 1    
    11    5   76 1    
    12    6    7 1    
    13    6   77 1    
    14    6   78 1    
    15    7    8 1    
    16    8    9 1    
    17    8   79 1    
    18    8   80 1    
    19    9   10 ar   
    20    9   14 ar   
    21   10   11 ar   
    22   10   81 1    
    23   11   12 ar   
    24   11   71 1    
    25   12   13 ar   
    26   12   82 1    
    27   13   14 ar   
    28   13   15 1    
    29   14   83 1    
    30   15   16 1    
    31   15   84 1    
    32   15   85 1    
    33   16   17 1    
    34   17   18 1    
    35   17   86 1    
    36   17   87 1    
    37   18   19 1    
    38   18   37 1    
    39   18   88 1    
    40   19   20 am   BACKBONE|DICT|INTERRES
    41   19   89 1    
    42   20   21 2    
    43   20   22 1    
    44   22   23 1    
    45   22   24 1    
    46   22   90 1    
    47   23   91 1    
    48   23   92 1    
    49   23   93 1    
    50   24   25 am   BACKBONE|DICT|INTERRES
    51   24   94 1    
    52   25   26 2    
    53   25   27 1    
    54   27   28 1    
    55   27   29 1    
    56   27   95 1    
    57   28   96 1    
    58   28   97 1    
    59   28   98 1    
    60   29   30 am   BACKBONE|DICT|INTERRES
    61   29   99 1    
    62   30   31 2    
    63   30   32 1    
    64   32   33 1    
    65   32   34 1    
    66   32  100 1    
    67   33  101 1    
    68   33  102 1    
    69   33  103 1    
    70   34   35 am   BACKBONE|DICT|INTERRES
    71   34  104 1    
    72   35   36 2    
    73   37   38 2    
    74   37   39 am   BACKBONE|DICT|INTERRES
    75   39   40 1    
    76   39  105 1    
    77   40   41 1    
    78   40   42 1    
    79   40  106 1    
    80   41  107 1    
    81   41  108 1    
    82   41  109 1    
    83   42   43 2    
    84   42   44 am   BACKBONE|DICT|INTERRES
    85   44   45 1    
    86   44  110 1    
    87   45   46 1    
    88   45   47 1    
    89   45  111 1    
    90   46  112 1    
    91   46  113 1    
    92   46  114 1    
    93   47   48 2    
    94   47   49 am   BACKBONE|DICT|INTERRES
    95   49   50 1    
    96   49  115 1    
    97   50   51 1    
    98   50   52 1    
    99   50  116 1    
   100   51  117 1    
   101   51  118 1    
   102   51  119 1    
   103   52   53 2    
   104   52   54 am   BACKBONE|DICT|INTERRES
   105   54   55 1    
   106   54  120 1    
   107   55   56 1    
   108   55   57 1    
   109   55  121 1    
   110   56  122 1    
   111   56  123 1    
   112   56  124 1    
   113   57   58 2    
   114   57   59 am   BACKBONE|DICT|INTERRES
   115   59   60 1    
   116   59  125 1    
   117   60   61 1    
   118   60   62 1    
   119   60  126 1    
   120   61  127 1    
   121   61  128 1    
   122   61  129 1    
   123   62   63 2    
   124   62   64 am   BACKBONE|DICT|INTERRES
   125   64   65 1    
   126   64  130 1    
   127   65   66 1    
   128   65   69 1    
   129   65  131 1    
   130   66   67 am   BACKBONE|DICT|INTERRES
   131   66   68 2    
   132   67  132 1    
   133   67  133 1    
   134   69   70 1    
   135   69  134 1    
   136   69  135 1    
   137   70   71 1    
   138   71  136 1    
   139   71  137 1    
@<TRIPOS>SUBSTRUCTURE
     1 UNK         1 GROUP             0       ****    0 ROOT    
