@<TRIPOS>MOLECULE
3R137
137   139    1
SMALL
USER_CHARGES


@<TRIPOS>ATOM
      1 CA         28.8244   -2.0154    3.6445 C.3       0 UNK        -0.2020 
      2 C          28.8665   -1.3905    2.2579 C.2       0 UNK         0.4855 
      3 O          29.2696   -0.2350    2.1192 O.2       0 UNK        -0.5197 
      4 N          28.4632   -2.1477    1.2303 N.am      1 UNK        -0.4892 
      5 CA         28.3912   -1.7005   -0.1658 C.3       1 UNK         0.0835 
      6 C6         28.2333   -2.8917   -1.1469 C.3       12 UNK        -0.0855 
      7 S7         29.5935   -4.0966   -0.9897 S.3       12 UNK        -0.2931 
      8 C8         29.2916   -5.1891   -2.4227 C.3       12 UNK         0.0378 
      9 C9         29.7935   -4.6607   -3.7684 C.ar      12 UNK        -0.0802 
     10 C10        30.8897   -3.7920   -3.8659 C.ar      12 UNK        -0.0944 
     11 C11        31.3677   -3.3849   -5.1140 C.ar      12 UNK        -0.0787 
     12 C12        30.7323   -3.8384   -6.2713 C.ar      12 UNK        -0.0862 
     13 C13        29.6384   -4.7052   -6.2016 C.ar      12 UNK        -0.0733 
     14 C14        29.1853   -5.1217   -4.9430 C.ar      12 UNK        -0.0832 
     15 C15        29.0324   -5.2082   -7.5147 C.3       12 UNK         0.0240 
     16 S16        27.2872   -5.7561   -7.4695 S.3       12 UNK        -0.2522 
     17 C17        26.3751   -4.3536   -6.7426 C.3       12 UNK        -0.0967 
     18 CA         26.1878   -3.1273   -7.6789 C.3       5 UNK         0.0660 
     19 N          24.9361   -2.4293   -7.3675 N.am      5 UNK        -0.4015 
     20 C          24.4667   -1.3191   -7.9561 C.2       4 UNK         0.4946 
     21 O          24.9757   -0.7901   -8.9429 O.2       4 UNK        -0.5353 
     22 CA         23.2546   -0.6473   -7.2800 C.3       4 UNK         0.0277 
     23 CB         21.9422   -1.1842   -7.8725 C.3       4 UNK        -0.1981 
     24 N          23.2350   -0.7977   -5.8169 N.am      4 UNK        -0.4209 
     25 C          24.2225   -0.4119   -4.9949 C.2       3 UNK         0.4942 
     26 O          25.2474    0.1533   -5.3846 O.2       3 UNK        -0.5208 
     27 CA         24.0742   -0.8043   -3.5150 C.3       3 UNK         0.0250 
     28 CB         24.0995   -2.3358   -3.3514 C.3       3 UNK        -0.1990 
     29 N          25.1624   -0.2475   -2.7128 N.am      3 UNK        -0.4232 
     30 C          25.2261    1.0035   -2.2423 C.2       2 UNK         0.4993 
     31 O          24.3112    1.8207   -2.3615 O.2       2 UNK        -0.5286 
     32 CA         26.5370    1.4247   -1.5403 C.3       2 UNK         0.0209 
     33 CB         26.2726    2.3077   -0.3014 C.3       2 UNK        -0.1931 
     34 N          27.4563    0.3194   -1.2073 N.am      2 UNK        -0.4546 
     35 C          27.2394   -0.6895   -0.3482 C.2       1 UNK         0.5154 
     36 O          26.1777   -0.8641    0.2553 O.2       1 UNK        -0.5181 
     37 C          27.3983   -2.1751   -7.5857 C.2       5 UNK         0.5014 
     38 O          28.1481   -2.0291   -8.5523 O.2       5 UNK        -0.5248 
     39 N          27.5428   -1.5262   -6.4217 N.am      6 UNK        -0.4434 
     40 CA         28.6265   -0.5949   -6.1221 C.3       6 UNK         0.0363 
     41 CB         28.6518   -0.2878   -4.6175 C.3       6 UNK        -0.1936 
     42 C          28.5395    0.6941   -6.9466 C.2       6 UNK         0.5081 
     43 O          29.5736    1.1939   -7.3856 O.2       6 UNK        -0.5248 
     44 N          27.3140    1.1845   -7.1785 N.am      7 UNK        -0.4718 
     45 CA         27.0324    2.3316   -8.0440 C.3       7 UNK         0.0273 
     46 CB         25.5511    2.7209   -7.9247 C.3       7 UNK        -0.1935 
     47 C          27.4171    2.0760   -9.5119 C.2       7 UNK         0.5018 
     48 O          28.0017    2.9591  -10.1394 O.2       7 UNK        -0.5186 
     49 N          27.1137    0.8721  -10.0209 N.am      8 UNK        -0.4240 
     50 CA         27.5011    0.4170  -11.3583 C.3       8 UNK         0.0235 
     51 CB         26.7327   -0.8652  -11.7168 C.3       8 UNK        -0.2000 
     52 C          29.0172    0.1998  -11.4936 C.2       8 UNK         0.4941 
     53 O          29.5920    0.5940  -12.5092 O.2       8 UNK        -0.5273 
     54 N          29.6383   -0.4092  -10.4727 N.am      9 UNK        -0.4262 
     55 CA         31.0857   -0.6346  -10.4008 C.3       9 UNK         0.0264 
     56 CB         31.3863   -1.6316   -9.2718 C.3       9 UNK        -0.1955 
     57 C          31.9029    0.6550  -10.2012 C.2       9 UNK         0.5031 
     58 O          33.0560    0.7037  -10.6317 O.2       9 UNK        -0.5390 
     59 N          31.2998    1.6536   -9.5400 N.am      10 UNK        -0.4204 
     60 CA         31.8720    2.9373   -9.1203 C.3       10 UNK         0.0237 
     61 CB         32.2920    3.7916  -10.3357 C.3       10 UNK        -0.1985 
     62 C          32.9877    2.7769   -8.0679 C.2       10 UNK         0.4970 
     63 O          33.9278    3.5741   -8.0453 O.2       10 UNK        -0.4914 
     64 N          32.8653    1.7506   -7.2161 N.am      11 UNK        -0.4285 
     65 CA         33.7747    1.4770   -6.0958 C.3       11 UNK         0.1007 
     66 C          33.5146    2.3925   -4.8660 C.2       11 UNK         0.5703 
     67 N          34.4625    2.4663   -3.9409 N.am      11 UNK        -0.7361 
     68 O          32.4686    3.0261   -4.7316 O.2       11 UNK        -0.4986 
     69 C69        33.8018   -0.0330   -5.7340 C.3       12 UNK        -0.0947 
     70 S70        32.1764   -0.7399   -5.3070 S.3       12 UNK        -0.2240 
     71 C71        32.6039   -2.5031   -5.2226 C.3       12 UNK         0.0194 
     72 H72        28.1658   -1.4404    4.2949 H         1 UNK         0.0906 
     73 H73        28.4624   -3.0430    3.6183 H         1 UNK         0.0906 
     74 H74        29.8210   -2.0186    4.0851 H         1 UNK         0.0906 
     75 H75        28.1373   -3.0884    1.4004 H         1 UNK         0.3140 
     76 H76        29.3306   -1.1920   -0.3958 H         1 UNK         0.1085 
     77 H77        27.2883   -3.4119   -0.9758 H         1 UNK         0.0836 
     78 H78        28.2088   -2.5396   -2.1793 H         1 UNK         0.0836 
     79 H79        29.7883   -6.1413   -2.2319 H         1 UNK         0.0731 
     80 H80        28.2236   -5.4069   -2.4761 H         1 UNK         0.0731 
     81 H81        31.3965   -3.4507   -2.9744 H         1 UNK         0.1312 
     82 H82        31.1113   -3.5336   -7.2357 H         1 UNK         0.1406 
     83 H83        28.3653   -5.8231   -4.8737 H         1 UNK         0.1631 
     84 H84        29.1305   -4.4464   -8.2881 H         1 UNK         0.0717 
     85 H85        29.6342   -6.0511   -7.8563 H         1 UNK         0.0717 
     86 H86        25.3974   -4.7686   -6.4913 H         1 UNK         0.0934 
     87 H87        26.8078   -4.0787   -5.7799 H         1 UNK         0.0934 
     88 H88        26.1079   -3.4711   -8.7123 H         1 UNK         0.0739 
     89 H89        24.4159   -2.7835   -6.5797 H         1 UNK         0.3093 
     90 H90        23.3113    0.4211   -7.4944 H         1 UNK         0.0818 
     91 H91        21.0790   -0.6479   -7.4777 H         1 UNK         0.0819 
     92 H92        21.9266   -1.0630   -8.9568 H         1 UNK         0.0819 
     93 H93        21.8049   -2.2454   -7.6615 H         1 UNK         0.0819 
     94 H94        22.4224   -1.2488   -5.4207 H         1 UNK         0.3041 
     95 H95        23.1209   -0.4184   -3.1474 H         1 UNK         0.0784 
     96 H96        23.2601   -2.8080   -3.8630 H         1 UNK         0.0793 
     97 H97        25.0155   -2.7735   -3.7505 H         1 UNK         0.0793 
     98 H98        24.0276   -2.6195   -2.3009 H         1 UNK         0.0793 
     99 H99        25.9684   -0.8361   -2.5778 H         1 UNK         0.3024 
    100 H100       27.0641    2.0420   -2.2702 H         1 UNK         0.1171 
    101 H101       27.2046    2.6247    0.1666 H         1 UNK         0.0786 
    102 H102       25.7254    3.2116   -0.5719 H         1 UNK         0.0786 
    103 H103       25.6807    1.7848    0.4505 H         1 UNK         0.0786 
    104 H104       28.3602    0.3692   -1.6576 H         1 UNK         0.2977 
    105 H105       26.8260   -1.6191   -5.7183 H         1 UNK         0.3127 
    106 H106       29.5603   -1.0906   -6.3876 H         1 UNK         0.0770 
    107 H107       27.7143    0.1515   -4.2780 H         1 UNK         0.0814 
    108 H108       29.4478    0.4195   -4.3803 H         1 UNK         0.0814 
    109 H109       28.8420   -1.1912   -4.0393 H         1 UNK         0.0814 
    110 H110       26.5224    0.7369   -6.7233 H         1 UNK         0.2983 
    111 H111       27.6352    3.1685   -7.6846 H         1 UNK         0.0947 
    112 H112       25.3446    3.6353   -8.4821 H         1 UNK         0.0806 
    113 H113       25.2676    2.8999   -6.8872 H         1 UNK         0.0806 
    114 H114       24.8983    1.9447   -8.3227 H         1 UNK         0.0806 
    115 H115       26.5727    0.2214   -9.4568 H         1 UNK         0.3000 
    116 H116       27.2140    1.1930  -12.0712 H         1 UNK         0.0850 
    117 H117       27.0017   -1.2175  -12.7135 H         1 UNK         0.0810 
    118 H118       25.6560   -0.6945  -11.7122 H         1 UNK         0.0810 
    119 H119       26.9438   -1.6731  -11.0151 H         1 UNK         0.0810 
    120 H120       29.0767   -0.7778   -9.7080 H         1 UNK         0.3040 
    121 H121       31.4041   -1.0823  -11.3446 H         1 UNK         0.0766 
    122 H122       30.8794   -2.5814   -9.4428 H         1 UNK         0.0812 
    123 H123       31.0654   -1.2482   -8.3029 H         1 UNK         0.0812 
    124 H124       32.4551   -1.8393   -9.2036 H         1 UNK         0.0812 
    125 H125       30.3883    1.4550   -9.1360 H         1 UNK         0.3205 
    126 H126       31.0629    3.4667   -8.6147 H         1 UNK         0.0754 
    127 H127       32.5669    4.8010  -10.0275 H         1 UNK         0.0769 
    128 H128       31.4769    3.8836  -11.0537 H         1 UNK         0.0769 
    129 H129       33.1511    3.3660  -10.8548 H         1 UNK         0.0769 
    130 H130       32.0233    1.1920   -7.2473 H         1 UNK         0.2981 
    131 H131       34.7808    1.7264   -6.4390 H         1 UNK         0.0541 
    132 H132       34.3121    3.0502   -3.1332 H         1 UNK         0.3459 
    133 H133       35.3248    1.9526   -4.0335 H         1 UNK         0.3459 
    134 H134       34.4920   -0.2229   -4.9103 H         1 UNK         0.0612 
    135 H135       34.1969   -0.5910   -6.5844 H         1 UNK         0.0612 
    136 H136       33.1726   -2.7799   -6.1118 H         1 UNK         0.0624 
    137 H137       33.2647   -2.6703   -4.3707 H         1 UNK         0.0624 
@<TRIPOS>BOND
     1    1    2 1    
     2    1   72 1    
     3    1   73 1    
     4    1   74 1    
     5    2    3 2    
     6    2    4 am   BACKBONE|DICT|INTERRES
     7    4    5 1    
     8    4   75 1    
     9    5    6 1    
    10    5   35 1    
    11    5   76 1    
    12    6    7 1    
    13    6   77 1    
    14    6   78 1    
    15    7    8 1    
    16    8    9 1    
    17    8   79 1    
    18    8   80 1    
    19    9   10 ar   
    20    9   14 ar   
    21   10   11 ar   
    22   10   81 1    
    23   11   12 ar   
    24   11   71 1    
    25   12   13 ar   
    26   12   82 1    
    27   13   14 ar   
    28   13   15 1    
    29   14   83 1    
    30   15   16 1    
    31   15   84 1    
    32   15   85 1    
    33   16   17 1    
    34   17   18 1    
    35   17   86 1    
    36   17   87 1    
    37   18   19 1    
    38   18   37 1    
    39   18   88 1    
    40   19   20 am   BACKBONE|DICT|INTERRES
    41   19   89 1    
    42   20   21 2    
    43   20   22 1    
    44   22   23 1    
    45   22   24 1    
    46   22   90 1    
    47   23   91 1    
    48   23   92 1    
    49   23   93 1    
    50   24   25 am   BACKBONE|DICT|INTERRES
    51   24   94 1    
    52   25   26 2    
    53   25   27 1    
    54   27   28 1    
    55   27   29 1    
    56   27   95 1    
    57   28   96 1    
    58   28   97 1    
    59   28   98 1    
    60   29   30 am   BACKBONE|DICT|INTERRES
    61   29   99 1    
    62   30   31 2    
    63   30   32 1    
    64   32   33 1    
    65   32   34 1    
    66   32  100 1    
    67   33  101 1    
    68   33  102 1    
    69   33  103 1    
    70   34   35 am   BACKBONE|DICT|INTERRES
    71   34  104 1    
    72   35   36 2    
    73   37   38 2    
    74   37   39 am   BACKBONE|DICT|INTERRES
    75   39   40 1    
    76   39  105 1    
    77   40   41 1    
    78   40   42 1    
    79   40  106 1    
    80   41  107 1    
    81   41  108 1    
    82   41  109 1    
    83   42   43 2    
    84   42   44 am   BACKBONE|DICT|INTERRES
    85   44   45 1    
    86   44  110 1    
    87   45   46 1    
    88   45   47 1    
    89   45  111 1    
    90   46  112 1    
    91   46  113 1    
    92   46  114 1    
    93   47   48 2    
    94   47   49 am   BACKBONE|DICT|INTERRES
    95   49   50 1    
    96   49  115 1    
    97   50   51 1    
    98   50   52 1    
    99   50  116 1    
   100   51  117 1    
   101   51  118 1    
   102   51  119 1    
   103   52   53 2    
   104   52   54 am   BACKBONE|DICT|INTERRES
   105   54   55 1    
   106   54  120 1    
   107   55   56 1    
   108   55   57 1    
   109   55  121 1    
   110   56  122 1    
   111   56  123 1    
   112   56  124 1    
   113   57   58 2    
   114   57   59 am   BACKBONE|DICT|INTERRES
   115   59   60 1    
   116   59  125 1    
   117   60   61 1    
   118   60   62 1    
   119   60  126 1    
   120   61  127 1    
   121   61  128 1    
   122   61  129 1    
   123   62   63 2    
   124   62   64 am   BACKBONE|DICT|INTERRES
   125   64   65 1    
   126   64  130 1    
   127   65   66 1    
   128   65   69 1    
   129   65  131 1    
   130   66   67 am   BACKBONE|DICT|INTERRES
   131   66   68 2    
   132   67  132 1    
   133   67  133 1    
   134   69   70 1    
   135   69  134 1    
   136   69  135 1    
   137   70   71 1    
   138   71  136 1    
   139   71  137 1    
@<TRIPOS>SUBSTRUCTURE
     1 UNK         1 GROUP             0       ****    0 ROOT    
