@<TRIPOS>MOLECULE
3R137
137   139    1
SMALL
USER_CHARGES


@<TRIPOS>ATOM
      1 CA         26.2242   -4.6856   -8.0842 C.3       0 UNK        -0.2020 
      2 C          25.7566   -5.2511   -6.7533 C.2       0 UNK         0.4855 
      3 O          24.7823   -6.0030   -6.7074 O.2       0 UNK        -0.5197 
      4 N          26.4420   -4.8892   -5.6623 N.am      1 UNK        -0.4892 
      5 CA         26.1743   -5.3197   -4.2849 C.3       1 UNK         0.0835 
      6 C6         27.4470   -5.2088   -3.4023 C.3       12 UNK        -0.0855 
      7 S7         28.2829   -3.5815   -3.4656 S.3       12 UNK        -0.2931 
      8 C8         30.0321   -4.0812   -3.5387 C.3       12 UNK         0.0378 
      9 C9         30.9621   -2.9492   -3.1241 C.ar      12 UNK        -0.0802 
     10 C10        31.9251   -2.4497   -4.0090 C.ar      12 UNK        -0.0944 
     11 C11        32.8143   -1.4500   -3.5968 C.ar      12 UNK        -0.0787 
     12 C12        32.7195   -0.9378   -2.2997 C.ar      12 UNK        -0.0862 
     13 C13        31.7442   -1.4072   -1.4191 C.ar      12 UNK        -0.0733 
     14 C14        30.8811   -2.4255   -1.8299 C.ar      12 UNK        -0.0832 
     15 C15        31.6144   -0.8026   -0.0307 C.3       12 UNK         0.0240 
     16 S16        30.0829    0.1665    0.1348 S.3       12 UNK        -0.2522 
     17 C17        30.2970    1.4711   -1.1317 C.3       12 UNK        -0.0967 
     18 CA         29.5532    1.1836   -2.4703 C.3       5 UNK         0.0660 
     19 N          28.1684    0.7645   -2.2255 N.am      5 UNK        -0.4015 
     20 C          27.3612    0.1182   -3.0752 C.2       4 UNK         0.4946 
     21 O          27.6616   -0.1282   -4.2446 O.2       4 UNK        -0.5353 
     22 CA         26.0220   -0.3779   -2.4925 C.3       4 UNK         0.0277 
     23 CB         25.3520    0.6419   -1.5428 C.3       4 UNK        -0.1981 
     24 N          25.0836   -0.8371   -3.5229 N.am      4 UNK        -0.4209 
     25 C          24.4701   -0.0990   -4.4630 C.2       3 UNK         0.4942 
     26 O          24.5725    1.1256   -4.5531 O.2       3 UNK        -0.5208 
     27 CA         23.5828   -0.8369   -5.4880 C.3       3 UNK         0.0250 
     28 CB         24.2067   -0.7711   -6.8903 C.3       3 UNK        -0.1990 
     29 N          23.3373   -2.2401   -5.1562 N.am      3 UNK        -0.4232 
     30 C          22.4786   -2.6812   -4.2271 C.2       2 UNK         0.4993 
     31 O          21.7189   -1.9508   -3.5907 O.2       2 UNK        -0.5286 
     32 CA         22.4921   -4.1951   -3.9440 C.3       2 UNK         0.0209 
     33 CB         21.3499   -4.8958   -4.6973 C.3       2 UNK        -0.1931 
     34 N          23.7655   -4.8395   -4.2916 N.am      2 UNK        -0.4546 
     35 C          24.9398   -4.6009   -3.6914 C.2       1 UNK         0.5154 
     36 O          25.0585   -3.8137   -2.7511 O.2       1 UNK        -0.5181 
     37 C          29.6254    2.3859   -3.4433 C.2       5 UNK         0.5014 
     38 O          30.0292    3.4788   -3.0389 O.2       5 UNK        -0.5248 
     39 N          29.1918    2.1855   -4.6922 N.am      6 UNK        -0.4434 
     40 CA         29.0370    3.2183   -5.7139 C.3       6 UNK         0.0363 
     41 CB         27.5654    3.6726   -5.7262 C.3       6 UNK        -0.1936 
     42 C          29.4550    2.6935   -7.0925 C.2       6 UNK         0.5081 
     43 O          29.6595    1.4900   -7.2736 O.2       6 UNK        -0.5248 
     44 N          29.5319    3.6101   -8.0676 N.am      7 UNK        -0.4718 
     45 CA         29.8657    3.3351   -9.4719 C.3       7 UNK         0.0273 
     46 CB         29.9339    4.6573  -10.2507 C.3       7 UNK        -0.1935 
     47 C          28.9140    2.3456  -10.1668 C.2       7 UNK         0.5018 
     48 O          29.3456    1.6239  -11.0648 O.2       7 UNK        -0.5186 
     49 N          27.6629    2.2725   -9.6942 N.am      8 UNK        -0.4240 
     50 CA         26.6673    1.2746  -10.0930 C.3       8 UNK         0.0235 
     51 CB         25.3042    1.6749   -9.5092 C.3       8 UNK        -0.2000 
     52 C          27.0392   -0.1757   -9.7135 C.2       8 UNK         0.4941 
     53 O          26.5289   -1.1005  -10.3454 O.2       8 UNK        -0.5273 
     54 N          27.9389   -0.3550   -8.7339 N.am      9 UNK        -0.4262 
     55 CA         28.5612   -1.6339   -8.3779 C.3       9 UNK         0.0264 
     56 CB         28.4905   -1.8232   -6.8525 C.3       9 UNK        -0.1955 
     57 C          30.0169   -1.7163   -8.8793 C.2       9 UNK         0.5031 
     58 O          30.7793   -2.5414   -8.3745 O.2       9 UNK        -0.5390 
     59 N          30.3849   -0.8601   -9.8466 N.am      10 UNK        -0.4204 
     60 CA         31.7129   -0.7028  -10.4518 C.3       10 UNK         0.0237 
     61 CB         32.1643   -1.9958  -11.1658 C.3       10 UNK        -0.1985 
     62 C          32.7828   -0.1458   -9.4908 C.2       10 UNK         0.4970 
     63 O          33.9730   -0.2868   -9.7761 O.2       10 UNK        -0.4914 
     64 N          32.3615    0.5079   -8.3983 N.am      11 UNK        -0.4285 
     65 CA         33.2438    1.1519   -7.4119 C.3       11 UNK         0.1007 
     66 C          33.7289    2.5815   -7.8111 C.2       11 UNK         0.5703 
     67 N          33.5419    3.0304   -9.0467 N.am      11 UNK        -0.7361 
     68 O          34.2979    3.3008   -6.9942 O.2       11 UNK        -0.4986 
     69 C69        32.6252    1.0844   -5.9868 C.3       12 UNK        -0.0947 
     70 S70        33.9013    0.8625   -4.7072 S.3       12 UNK        -0.2240 
     71 C71        33.9103   -0.9504   -4.5284 C.3       12 UNK         0.0194 
     72 H72        27.3114   -4.6256   -8.1212 H         1 UNK         0.0906 
     73 H73        25.8981   -5.3230   -8.9058 H         1 UNK         0.0906 
     74 H74        25.8117   -3.6891   -8.2417 H         1 UNK         0.0906 
     75 H75        27.2163   -4.2452   -5.7472 H         1 UNK         0.3140 
     76 H76        25.9094   -6.3795   -4.3132 H         1 UNK         0.1085 
     77 H77        28.1547   -5.9753   -3.7222 H         1 UNK         0.0836 
     78 H78        27.2195   -5.4444   -2.3608 H         1 UNK         0.0836 
     79 H79        30.2611   -4.4297   -4.5470 H         1 UNK         0.0731 
     80 H80        30.1991   -4.9264   -2.8693 H         1 UNK         0.0731 
     81 H81        31.9971   -2.8542   -5.0097 H         1 UNK         0.1312 
     82 H82        33.4031   -0.1628   -1.9805 H         1 UNK         0.1406 
     83 H83        30.1301   -2.7989   -1.1465 H         1 UNK         0.1631 
     84 H84        32.4695   -0.1668    0.2041 H         1 UNK         0.0717 
     85 H85        31.6115   -1.6013    0.7122 H         1 UNK         0.0717 
     86 H86        29.9331    2.3986   -0.6850 H         1 UNK         0.0934 
     87 H87        31.3614    1.6284   -1.3159 H         1 UNK         0.0934 
     88 H88        30.0628    0.3525   -2.9625 H         1 UNK         0.0739 
     89 H89        27.8396    0.9206   -1.2848 H         1 UNK         0.3093 
     90 H90        26.2629   -1.2677   -1.9084 H         1 UNK         0.0818 
     91 H91        25.9362    0.7880   -0.6341 H         1 UNK         0.0819 
     92 H92        25.2296    1.6175   -2.0148 H         1 UNK         0.0819 
     93 H93        24.3657    0.2990   -1.2297 H         1 UNK         0.0819 
     94 H94        24.9473   -1.8410   -3.5392 H         1 UNK         0.3041 
     95 H95        22.6227   -0.3170   -5.5172 H         1 UNK         0.0784 
     96 H96        24.3386    0.2655   -7.1931 H         1 UNK         0.0793 
     97 H97        25.1857   -1.2494   -6.9252 H         1 UNK         0.0793 
     98 H98        23.5701   -1.2462   -7.6369 H         1 UNK         0.0793 
     99 H99        23.9080   -2.9245   -5.6296 H         1 UNK         0.3024 
    100 H100       22.3312   -4.3235   -2.8711 H         1 UNK         0.1171 
    101 H101       21.4724   -4.8189   -5.7785 H         1 UNK         0.0786 
    102 H102       21.2955   -5.9538   -4.4399 H         1 UNK         0.0786 
    103 H103       20.3854   -4.4525   -4.4451 H         1 UNK         0.0786 
    104 H104       23.7737   -5.4528   -5.1024 H         1 UNK         0.2977 
    105 H105       28.8480    1.2592   -4.9394 H         1 UNK         0.3127 
    106 H106       29.6788    4.0713   -5.4835 H         1 UNK         0.0770 
    107 H107       27.3918    4.4613   -6.4588 H         1 UNK         0.0814 
    108 H108       27.2683    4.0690   -4.7550 H         1 UNK         0.0814 
    109 H109       26.8925    2.8467   -5.9638 H         1 UNK         0.0814 
    110 H110       29.3486    4.5763   -7.8348 H         1 UNK         0.2983 
    111 H111       30.8553    2.8791   -9.4875 H         1 UNK         0.0947 
    112 H112       30.2014    4.4829  -11.2940 H         1 UNK         0.0806 
    113 H113       30.6885    5.3247   -9.8338 H         1 UNK         0.0806 
    114 H114       28.9777    5.1819  -10.2426 H         1 UNK         0.0806 
    115 H115       27.3999    2.9093   -8.9566 H         1 UNK         0.3000 
    116 H116       26.5889    1.3009  -11.1822 H         1 UNK         0.0850 
    117 H117       25.3623    1.8383   -8.4334 H         1 UNK         0.0810 
    118 H118       24.5519    0.9059   -9.6918 H         1 UNK         0.0810 
    119 H119       24.9384    2.5960   -9.9634 H         1 UNK         0.0810 
    120 H120       28.3276    0.4554   -8.2586 H         1 UNK         0.3040 
    121 H121       28.0231   -2.4566   -8.8495 H         1 UNK         0.0766 
    122 H122       27.4679   -1.7545   -6.4839 H         1 UNK         0.0812 
    123 H123       29.0831   -1.0718   -6.3292 H         1 UNK         0.0812 
    124 H124       28.8766   -2.7986   -6.5551 H         1 UNK         0.0812 
    125 H125       29.6905   -0.2072  -10.1950 H         1 UNK         0.3205 
    126 H126       31.5929    0.0600  -11.2221 H         1 UNK         0.0754 
    127 H127       33.0606   -1.8217  -11.7624 H         1 UNK         0.0769 
    128 H128       31.3943   -2.3643  -11.8436 H         1 UNK         0.0769 
    129 H129       32.3980   -2.7913  -10.4578 H         1 UNK         0.0769 
    130 H130       31.3685    0.6043   -8.2222 H         1 UNK         0.2981 
    131 H131       34.1577    0.5555   -7.3900 H         1 UNK         0.0541 
    132 H132       33.1385    2.4380   -9.7524 H         1 UNK         0.3459 
    133 H133       33.8704    3.9524   -9.2863 H         1 UNK         0.3459 
    134 H134       31.9164    0.2580   -5.9041 H         1 UNK         0.0612 
    135 H135       32.0529    1.9844   -5.7582 H         1 UNK         0.0612 
    136 H136       34.8752   -1.2534   -4.1201 H         1 UNK         0.0624 
    137 H137       33.8340   -1.4127   -5.5141 H         1 UNK         0.0624 
@<TRIPOS>BOND
     1    1    2 1    
     2    1   72 1    
     3    1   73 1    
     4    1   74 1    
     5    2    3 2    
     6    2    4 am   BACKBONE|DICT|INTERRES
     7    4    5 1    
     8    4   75 1    
     9    5    6 1    
    10    5   35 1    
    11    5   76 1    
    12    6    7 1    
    13    6   77 1    
    14    6   78 1    
    15    7    8 1    
    16    8    9 1    
    17    8   79 1    
    18    8   80 1    
    19    9   10 ar   
    20    9   14 ar   
    21   10   11 ar   
    22   10   81 1    
    23   11   12 ar   
    24   11   71 1    
    25   12   13 ar   
    26   12   82 1    
    27   13   14 ar   
    28   13   15 1    
    29   14   83 1    
    30   15   16 1    
    31   15   84 1    
    32   15   85 1    
    33   16   17 1    
    34   17   18 1    
    35   17   86 1    
    36   17   87 1    
    37   18   19 1    
    38   18   37 1    
    39   18   88 1    
    40   19   20 am   BACKBONE|DICT|INTERRES
    41   19   89 1    
    42   20   21 2    
    43   20   22 1    
    44   22   23 1    
    45   22   24 1    
    46   22   90 1    
    47   23   91 1    
    48   23   92 1    
    49   23   93 1    
    50   24   25 am   BACKBONE|DICT|INTERRES
    51   24   94 1    
    52   25   26 2    
    53   25   27 1    
    54   27   28 1    
    55   27   29 1    
    56   27   95 1    
    57   28   96 1    
    58   28   97 1    
    59   28   98 1    
    60   29   30 am   BACKBONE|DICT|INTERRES
    61   29   99 1    
    62   30   31 2    
    63   30   32 1    
    64   32   33 1    
    65   32   34 1    
    66   32  100 1    
    67   33  101 1    
    68   33  102 1    
    69   33  103 1    
    70   34   35 am   BACKBONE|DICT|INTERRES
    71   34  104 1    
    72   35   36 2    
    73   37   38 2    
    74   37   39 am   BACKBONE|DICT|INTERRES
    75   39   40 1    
    76   39  105 1    
    77   40   41 1    
    78   40   42 1    
    79   40  106 1    
    80   41  107 1    
    81   41  108 1    
    82   41  109 1    
    83   42   43 2    
    84   42   44 am   BACKBONE|DICT|INTERRES
    85   44   45 1    
    86   44  110 1    
    87   45   46 1    
    88   45   47 1    
    89   45  111 1    
    90   46  112 1    
    91   46  113 1    
    92   46  114 1    
    93   47   48 2    
    94   47   49 am   BACKBONE|DICT|INTERRES
    95   49   50 1    
    96   49  115 1    
    97   50   51 1    
    98   50   52 1    
    99   50  116 1    
   100   51  117 1    
   101   51  118 1    
   102   51  119 1    
   103   52   53 2    
   104   52   54 am   BACKBONE|DICT|INTERRES
   105   54   55 1    
   106   54  120 1    
   107   55   56 1    
   108   55   57 1    
   109   55  121 1    
   110   56  122 1    
   111   56  123 1    
   112   56  124 1    
   113   57   58 2    
   114   57   59 am   BACKBONE|DICT|INTERRES
   115   59   60 1    
   116   59  125 1    
   117   60   61 1    
   118   60   62 1    
   119   60  126 1    
   120   61  127 1    
   121   61  128 1    
   122   61  129 1    
   123   62   63 2    
   124   62   64 am   BACKBONE|DICT|INTERRES
   125   64   65 1    
   126   64  130 1    
   127   65   66 1    
   128   65   69 1    
   129   65  131 1    
   130   66   67 am   BACKBONE|DICT|INTERRES
   131   66   68 2    
   132   67  132 1    
   133   67  133 1    
   134   69   70 1    
   135   69  134 1    
   136   69  135 1    
   137   70   71 1    
   138   71  136 1    
   139   71  137 1    
@<TRIPOS>SUBSTRUCTURE
     1 UNK         1 GROUP             0       ****    0 ROOT    
