@<TRIPOS>MOLECULE
3R137
137   139    1
SMALL
USER_CHARGES


@<TRIPOS>ATOM
      1 CA         27.2297   -4.1112    0.8946 C.3       0 UNK        -0.2020 
      2 C          27.4397   -2.6493    0.5314 C.2       0 UNK         0.4855 
      3 O          27.2308   -1.7708    1.3692 O.2       0 UNK        -0.5197 
      4 N          27.8405   -2.3760   -0.7163 N.am      1 UNK        -0.4892 
      5 CA         28.0839   -1.0332   -1.2576 C.3       1 UNK         0.0835 
      6 C6         29.1095   -1.0671   -2.4203 C.3       12 UNK        -0.0855 
      7 S7         30.8050   -1.4065   -1.8273 S.3       12 UNK        -0.2931 
      8 C8         31.0186   -3.1918   -2.1351 C.3       12 UNK         0.0378 
      9 C9         30.9755   -3.5366   -3.6172 C.ar      12 UNK        -0.0802 
     10 C10        32.0168   -3.1465   -4.4651 C.ar      12 UNK        -0.0944 
     11 C11        31.9728   -3.4417   -5.8315 C.ar      12 UNK        -0.0787 
     12 C12        30.8691   -4.1326   -6.3448 C.ar      12 UNK        -0.0862 
     13 C13        29.8124   -4.5136   -5.5121 C.ar      12 UNK        -0.0733 
     14 C14        29.8884   -4.2398   -4.1425 C.ar      12 UNK        -0.0832 
     15 C15        28.5741   -5.1735   -6.1146 C.3       12 UNK         0.0240 
     16 S16        26.9925   -4.4898   -5.4963 S.3       12 UNK        -0.2522 
     17 C17        27.2361   -2.6840   -5.6421 C.3       12 UNK        -0.0967 
     18 CA         26.4991   -2.0476   -6.8413 C.3       5 UNK         0.0660 
     19 N          25.0596   -2.2994   -6.7758 N.am      5 UNK        -0.4015 
     20 C          24.1136   -1.8493   -7.6115 C.2       4 UNK         0.4946 
     21 O          24.3491   -1.2442   -8.6583 O.2       4 UNK        -0.5353 
     22 CA         22.6515   -2.0523   -7.1574 C.3       4 UNK         0.0277 
     23 CB         22.0346   -3.2690   -7.8655 C.3       4 UNK        -0.1981 
     24 N          22.4863   -2.2000   -5.6999 N.am      4 UNK        -0.4209 
     25 C          22.9073   -1.3138   -4.7838 C.2       3 UNK         0.4942 
     26 O          23.4400   -0.2414   -5.0821 O.2       3 UNK        -0.5208 
     27 CA         22.7889   -1.7114   -3.3040 C.3       3 UNK         0.0250 
     28 CB         23.1939   -3.1781   -3.0428 C.3       3 UNK        -0.1990 
     29 N          23.6584   -0.8223   -2.5408 N.am      3 UNK        -0.4232 
     30 C          23.5389   -0.4781   -1.2586 C.2       2 UNK         0.4993 
     31 O          22.6726   -0.9251   -0.5041 O.2       2 UNK        -0.5286 
     32 CA         24.5878    0.5240   -0.7408 C.3       2 UNK         0.0209 
     33 CB         24.2093    1.1187    0.6286 C.3       2 UNK        -0.1931 
     34 N          25.9131   -0.0903   -0.6362 N.am      2 UNK        -0.4546 
     35 C          26.7472   -0.3645   -1.6483 C.2       1 UNK         0.5154 
     36 O          26.4833   -0.1308   -2.8302 O.2       1 UNK        -0.5181 
     37 C          26.8702   -0.5504   -6.8966 C.2       5 UNK         0.5014 
     38 O          27.9125   -0.2275   -7.4651 O.2       5 UNK        -0.5248 
     39 N          26.0416    0.3401   -6.3253 N.am      6 UNK        -0.4434 
     40 CA         26.2833    1.7865   -6.2389 C.3       6 UNK         0.0363 
     41 CB         25.1857    2.4368   -5.3826 C.3       6 UNK        -0.1936 
     42 C          26.4102    2.5065   -7.5958 C.2       6 UNK         0.5081 
     43 O          26.9457    3.6139   -7.6351 O.2       6 UNK        -0.5248 
     44 N          25.9550    1.8677   -8.6836 N.am      7 UNK        -0.4718 
     45 CA         26.1940    2.3043  -10.0616 C.3       7 UNK         0.0273 
     46 CB         25.3056    1.4831  -11.0095 C.3       7 UNK        -0.1935 
     47 C          27.6744    2.1990  -10.4821 C.2       7 UNK         0.5018 
     48 O          28.1116    2.9809  -11.3273 O.2       7 UNK        -0.5186 
     49 N          28.4116    1.2486   -9.8900 N.am      8 UNK        -0.4240 
     50 CA         29.8504    1.0527  -10.0803 C.3       8 UNK         0.0235 
     51 CB         30.1291   -0.4436  -10.2876 C.3       8 UNK        -0.2000 
     52 C          30.6513    1.5954   -8.8846 C.2       8 UNK         0.4941 
     53 O          31.7524    2.1102   -9.0878 O.2       8 UNK        -0.5273 
     54 N          30.0829    1.4912   -7.6728 N.am      9 UNK        -0.4262 
     55 CA         30.5816    1.9901   -6.3878 C.3       9 UNK         0.0264 
     56 CB         30.5353    3.5337   -6.3467 C.3       9 UNK        -0.1955 
     57 C          31.9565    1.4013   -6.0279 C.2       9 UNK         0.5031 
     58 O          32.0145    0.3012   -5.4812 O.2       9 UNK        -0.5390 
     59 N          33.0323    2.1357   -6.3402 N.am      10 UNK        -0.4204 
     60 CA         34.4192    1.6929   -6.1793 C.3       10 UNK         0.0237 
     61 CB         35.3472    2.9176   -6.2396 C.3       10 UNK        -0.1985 
     62 C          34.8464    0.6406   -7.2205 C.2       10 UNK         0.4970 
     63 O          35.8206   -0.0717   -6.9756 O.2       10 UNK        -0.4914 
     64 N          34.1302    0.5706   -8.3524 N.am      11 UNK        -0.4285 
     65 CA         34.3495   -0.3618   -9.4721 C.3       11 UNK         0.1007 
     66 C          35.6548   -0.1070  -10.2865 C.2       11 UNK         0.5703 
     67 N          36.2979    1.0483  -10.1620 N.am      11 UNK        -0.7361 
     68 O          36.0778   -0.9529  -11.0715 O.2       11 UNK        -0.4986 
     69 C69        34.1693   -1.8583   -9.0790 C.3       12 UNK        -0.0947 
     70 S70        32.5715   -2.2011   -8.2662 S.3       12 UNK        -0.2240 
     71 C71        33.1271   -3.0242   -6.7382 C.3       12 UNK         0.0194 
     72 H72        27.8716   -4.3849    1.7316 H         1 UNK         0.0906 
     73 H73        27.4569   -4.7766    0.0619 H         1 UNK         0.0906 
     74 H74        26.1944   -4.2788    1.1902 H         1 UNK         0.0906 
     75 H75        27.9565   -3.1341   -1.3718 H         1 UNK         0.3140 
     76 H76        28.5112   -0.4097   -0.4682 H         1 UNK         0.1085 
     77 H77        28.8165   -1.7864   -3.1847 H         1 UNK         0.0836 
     78 H78        29.1477   -0.0995   -2.9250 H         1 UNK         0.0836 
     79 H79        30.2620   -3.7476   -1.5799 H         1 UNK         0.0731 
     80 H80        31.9811   -3.5034   -1.7269 H         1 UNK         0.0731 
     81 H81        32.8566   -2.5994   -4.0584 H         1 UNK         0.1312 
     82 H82        30.8239   -4.3522   -7.4028 H         1 UNK         0.1406 
     83 H83        29.0771   -4.5396   -3.4937 H         1 UNK         0.1631 
     84 H84        28.6040   -6.2427   -5.9017 H         1 UNK         0.0717 
     85 H85        28.5808   -5.0740   -7.2012 H         1 UNK         0.0717 
     86 H86        26.8909   -2.2352   -4.7080 H         1 UNK         0.0934 
     87 H87        28.3001   -2.4510   -5.6975 H         1 UNK         0.0934 
     88 H88        26.8660   -2.5056   -7.7619 H         1 UNK         0.0739 
     89 H89        24.7535   -2.8184   -5.9671 H         1 UNK         0.3093 
     90 H90        22.0976   -1.1608   -7.4589 H         1 UNK         0.0818 
     91 H91        22.1208   -3.1747   -8.9491 H         1 UNK         0.0819 
     92 H92        22.5298   -4.1978   -7.5794 H         1 UNK         0.0819 
     93 H93        20.9735   -3.3677   -7.6358 H         1 UNK         0.0819 
     94 H94        22.0536   -3.0551   -5.3806 H         1 UNK         0.3041 
     95 H95        21.7529   -1.5535   -2.9978 H         1 UNK         0.0784 
     96 H96        22.5129   -3.8778   -3.5278 H         1 UNK         0.0793 
     97 H97        24.2018   -3.3888   -3.4037 H         1 UNK         0.0793 
     98 H98        23.1721   -3.4095   -1.9776 H         1 UNK         0.0793 
     99 H99        24.4042   -0.3964   -3.0840 H         1 UNK         0.3024 
    100 H100       24.6385    1.3458   -1.4593 H         1 UNK         0.1171 
    101 H101       24.9240    1.8803    0.9410 H         1 UNK         0.0786 
    102 H102       23.2278    1.5933    0.5907 H         1 UNK         0.0786 
    103 H103       24.1734    0.3542    1.4060 H         1 UNK         0.0786 
    104 H104       26.1949   -0.4091    0.2860 H         1 UNK         0.2977 
    105 H105       25.1828    0.0106   -5.8913 H         1 UNK         0.3127 
    106 H106       27.2354    1.9205   -5.7216 H         1 UNK         0.0770 
    107 H107       24.2007    2.3200   -5.8361 H         1 UNK         0.0814 
    108 H108       25.3650    3.5057   -5.2597 H         1 UNK         0.0814 
    109 H109       25.1504    1.9982   -4.3850 H         1 UNK         0.0814 
    110 H110       25.5089    0.9675   -8.5601 H         1 UNK         0.2983 
    111 H111       25.9045    3.3546  -10.1406 H         1 UNK         0.0947 
    112 H112       25.4463    1.7946  -12.0455 H         1 UNK         0.0806 
    113 H113       24.2490    1.6116  -10.7738 H         1 UNK         0.0806 
    114 H114       25.5331    0.4175  -10.9541 H         1 UNK         0.0806 
    115 H115       27.9765    0.6761   -9.1730 H         1 UNK         0.3000 
    116 H116       30.1871    1.5854  -10.9723 H         1 UNK         0.0850 
    117 H117       31.1868   -0.6185  -10.4842 H         1 UNK         0.0810 
    118 H118       29.5742   -0.8356  -11.1399 H         1 UNK         0.0810 
    119 H119       29.8561   -1.0327   -9.4107 H         1 UNK         0.0810 
    120 H120       29.2321    0.9337   -7.6072 H         1 UNK         0.3040 
    121 H121       29.8866    1.6235   -5.6304 H         1 UNK         0.0766 
    122 H122       31.1164    3.9926   -7.1468 H         1 UNK         0.0812 
    123 H123       30.9170    3.9136   -5.3980 H         1 UNK         0.0812 
    124 H124       29.5103    3.8919   -6.4446 H         1 UNK         0.0812 
    125 H125       32.8828    3.0118   -6.8203 H         1 UNK         0.3205 
    126 H126       34.5205    1.2346   -5.1931 H         1 UNK         0.0754 
    127 H127       36.3888    2.6258   -6.0971 H         1 UNK         0.0769 
    128 H128       35.1051    3.6373   -5.4573 H         1 UNK         0.0769 
    129 H129       35.2804    3.4298   -7.2004 H         1 UNK         0.0769 
    130 H130       33.3465    1.2057   -8.4750 H         1 UNK         0.2981 
    131 H131       33.5538   -0.1275  -10.1791 H         1 UNK         0.0541 
    132 H132       37.1342    1.2086  -10.7010 H         1 UNK         0.3459 
    133 H133       35.9555    1.7579   -9.5349 H         1 UNK         0.3459 
    134 H134       34.9890   -2.1841   -8.4370 H         1 UNK         0.0612 
    135 H135       34.2151   -2.4914   -9.9665 H         1 UNK         0.0612 
    136 H136       33.7080   -3.9097   -6.9987 H         1 UNK         0.0624 
    137 H137       33.8008   -2.3468   -6.2105 H         1 UNK         0.0624 
@<TRIPOS>BOND
     1    1    2 1    
     2    1   72 1    
     3    1   73 1    
     4    1   74 1    
     5    2    3 2    
     6    2    4 am   BACKBONE|DICT|INTERRES
     7    4    5 1    
     8    4   75 1    
     9    5    6 1    
    10    5   35 1    
    11    5   76 1    
    12    6    7 1    
    13    6   77 1    
    14    6   78 1    
    15    7    8 1    
    16    8    9 1    
    17    8   79 1    
    18    8   80 1    
    19    9   10 ar   
    20    9   14 ar   
    21   10   11 ar   
    22   10   81 1    
    23   11   12 ar   
    24   11   71 1    
    25   12   13 ar   
    26   12   82 1    
    27   13   14 ar   
    28   13   15 1    
    29   14   83 1    
    30   15   16 1    
    31   15   84 1    
    32   15   85 1    
    33   16   17 1    
    34   17   18 1    
    35   17   86 1    
    36   17   87 1    
    37   18   19 1    
    38   18   37 1    
    39   18   88 1    
    40   19   20 am   BACKBONE|DICT|INTERRES
    41   19   89 1    
    42   20   21 2    
    43   20   22 1    
    44   22   23 1    
    45   22   24 1    
    46   22   90 1    
    47   23   91 1    
    48   23   92 1    
    49   23   93 1    
    50   24   25 am   BACKBONE|DICT|INTERRES
    51   24   94 1    
    52   25   26 2    
    53   25   27 1    
    54   27   28 1    
    55   27   29 1    
    56   27   95 1    
    57   28   96 1    
    58   28   97 1    
    59   28   98 1    
    60   29   30 am   BACKBONE|DICT|INTERRES
    61   29   99 1    
    62   30   31 2    
    63   30   32 1    
    64   32   33 1    
    65   32   34 1    
    66   32  100 1    
    67   33  101 1    
    68   33  102 1    
    69   33  103 1    
    70   34   35 am   BACKBONE|DICT|INTERRES
    71   34  104 1    
    72   35   36 2    
    73   37   38 2    
    74   37   39 am   BACKBONE|DICT|INTERRES
    75   39   40 1    
    76   39  105 1    
    77   40   41 1    
    78   40   42 1    
    79   40  106 1    
    80   41  107 1    
    81   41  108 1    
    82   41  109 1    
    83   42   43 2    
    84   42   44 am   BACKBONE|DICT|INTERRES
    85   44   45 1    
    86   44  110 1    
    87   45   46 1    
    88   45   47 1    
    89   45  111 1    
    90   46  112 1    
    91   46  113 1    
    92   46  114 1    
    93   47   48 2    
    94   47   49 am   BACKBONE|DICT|INTERRES
    95   49   50 1    
    96   49  115 1    
    97   50   51 1    
    98   50   52 1    
    99   50  116 1    
   100   51  117 1    
   101   51  118 1    
   102   51  119 1    
   103   52   53 2    
   104   52   54 am   BACKBONE|DICT|INTERRES
   105   54   55 1    
   106   54  120 1    
   107   55   56 1    
   108   55   57 1    
   109   55  121 1    
   110   56  122 1    
   111   56  123 1    
   112   56  124 1    
   113   57   58 2    
   114   57   59 am   BACKBONE|DICT|INTERRES
   115   59   60 1    
   116   59  125 1    
   117   60   61 1    
   118   60   62 1    
   119   60  126 1    
   120   61  127 1    
   121   61  128 1    
   122   61  129 1    
   123   62   63 2    
   124   62   64 am   BACKBONE|DICT|INTERRES
   125   64   65 1    
   126   64  130 1    
   127   65   66 1    
   128   65   69 1    
   129   65  131 1    
   130   66   67 am   BACKBONE|DICT|INTERRES
   131   66   68 2    
   132   67  132 1    
   133   67  133 1    
   134   69   70 1    
   135   69  134 1    
   136   69  135 1    
   137   70   71 1    
   138   71  136 1    
   139   71  137 1    
@<TRIPOS>SUBSTRUCTURE
     1 UNK         1 GROUP             0       ****    0 ROOT    
