@<TRIPOS>MOLECULE
3R137
137   139    1
SMALL
USER_CHARGES


@<TRIPOS>ATOM
      1 CA         24.7718   -5.4486   -4.2738 C.3       0 UNK        -0.2020 
      2 C          25.2355   -4.4449   -3.2312 C.2       0 UNK         0.4855 
      3 O          25.3071   -3.2515   -3.5253 O.2       0 UNK        -0.5197 
      4 N          25.5090   -4.9358   -2.0138 N.am      1 UNK        -0.4892 
      5 CA         26.0103   -4.2503   -0.8060 C.3       1 UNK         0.0835 
      6 C6         27.4994   -3.8039   -0.9112 C.3       12 UNK        -0.0855 
      7 S7         27.8317   -2.2191   -1.7675 S.3       12 UNK        -0.2931 
      8 C8         29.6512   -2.1249   -1.6307 C.3       12 UNK         0.0378 
      9 C9         30.3727   -2.4785   -2.9286 C.ar      12 UNK        -0.0802 
     10 C10        31.4575   -1.7067   -3.3560 C.ar      12 UNK        -0.0944 
     11 C11        32.1300   -2.0110   -4.5445 C.ar      12 UNK        -0.0787 
     12 C12        31.6970   -3.0917   -5.3222 C.ar      12 UNK        -0.0862 
     13 C13        30.6244   -3.8839   -4.8969 C.ar      12 UNK        -0.0733 
     14 C14        29.9838   -3.5815   -3.6930 C.ar      12 UNK        -0.0832 
     15 C15        30.1761   -5.0953   -5.7050 C.3       12 UNK         0.0240 
     16 S16        29.0384   -4.6717   -7.0646 S.3       12 UNK        -0.2522 
     17 C17        27.5665   -4.0113   -6.1979 C.3       12 UNK        -0.0967 
     18 CA         27.0280   -2.6961   -6.8118 C.3       5 UNK         0.0660 
     19 N          25.7857   -2.2506   -6.1783 N.am      5 UNK        -0.4015 
     20 C          24.9501   -1.3579   -6.7307 C.2       4 UNK         0.4946 
     21 O          25.0939   -0.8856   -7.8592 O.2       4 UNK        -0.5353 
     22 CA         23.7851   -0.8762   -5.8555 C.3       4 UNK         0.0277 
     23 CB         22.6539   -1.9165   -5.8203 C.3       4 UNK        -0.1981 
     24 N          24.2166   -0.5743   -4.4911 N.am      4 UNK        -0.4209 
     25 C          25.0031    0.4526   -4.1415 C.2       3 UNK         0.4942 
     26 O          25.4477    1.2662   -4.9506 O.2       3 UNK        -0.5208 
     27 CA         25.4107    0.5740   -2.6607 C.3       3 UNK         0.0250 
     28 CB         25.2627    2.0140   -2.1276 C.3       3 UNK        -0.1990 
     29 N          24.7680   -0.4109   -1.7817 N.am      3 UNK        -0.4232 
     30 C          23.4880   -0.4783   -1.3807 C.2       2 UNK         0.4993 
     31 O          22.6402    0.3724   -1.6515 O.2       2 UNK        -0.5286 
     32 CA         23.0714   -1.7389   -0.5915 C.3       2 UNK         0.0209 
     33 CB         21.6260   -2.1643   -0.9117 C.3       2 UNK        -0.1931 
     34 N          23.9623   -2.8685   -0.8735 N.am      2 UNK        -0.4546 
     35 C          25.0855   -3.1622   -0.2086 C.2       1 UNK         0.5154 
     36 O          25.4127   -2.5958    0.8351 O.2       1 UNK        -0.5181 
     37 C          28.0657   -1.5578   -6.8243 C.2       5 UNK         0.5014 
     38 O          28.7179   -1.3689   -7.8486 O.2       5 UNK        -0.5248 
     39 N          28.1605   -0.7829   -5.7320 N.am      6 UNK        -0.4434 
     40 CA         29.0698    0.3618   -5.6214 C.3       6 UNK         0.0363 
     41 CB         29.0059    0.9646   -4.2097 C.3       6 UNK        -0.1936 
     42 C          28.8148    1.4416   -6.6869 C.2       6 UNK         0.5081 
     43 O          29.7631    1.9076   -7.3173 O.2       6 UNK        -0.5248 
     44 N          27.5373    1.7839   -6.9066 N.am      7 UNK        -0.4718 
     45 CA         27.0965    2.7184   -7.9453 C.3       7 UNK         0.0273 
     46 CB         25.5954    2.9997   -7.7743 C.3       7 UNK        -0.1935 
     47 C          27.3931    2.2311   -9.3747 C.2       7 UNK         0.5018 
     48 O          27.7140    3.0536  -10.2333 O.2       7 UNK        -0.5186 
     49 N          27.2866    0.9150   -9.6038 N.am      8 UNK        -0.4240 
     50 CA         27.5938    0.2755  -10.8834 C.3       8 UNK         0.0235 
     51 CB         26.9208   -1.1060  -10.9434 C.3       8 UNK        -0.2000 
     52 C          29.1072    0.1601  -11.1302 C.2       8 UNK         0.4941 
     53 O          29.5671    0.4784  -12.2275 O.2       8 UNK        -0.5273 
     54 N          29.8490   -0.3054  -10.1166 N.am      9 UNK        -0.4262 
     55 CA         31.2891   -0.5560  -10.1779 C.3       9 UNK         0.0264 
     56 CB         31.6897   -1.4914   -9.0233 C.3       9 UNK        -0.1955 
     57 C          32.1440    0.7183  -10.1348 C.2       9 UNK         0.5031 
     58 O          33.2749    0.6844  -10.6215 O.2       9 UNK        -0.5390 
     59 N          31.6402    1.7874   -9.4991 N.am      10 UNK        -0.4204 
     60 CA         32.2934    3.0739   -9.2008 C.3       10 UNK         0.0237 
     61 CB         32.7810    3.7879  -10.4770 C.3       10 UNK        -0.1985 
     62 C          33.4086    2.9828   -8.1393 C.2       10 UNK         0.4970 
     63 O          33.5844    3.9341   -7.3773 O.2       10 UNK        -0.4914 
     64 N          34.1077    1.8425   -8.0862 N.am      11 UNK        -0.4285 
     65 CA         35.0724    1.4276   -7.0543 C.3       11 UNK         0.1007 
     66 C          36.4250    2.2014   -7.0720 C.2       11 UNK         0.5703 
     67 N          36.7418    2.9576   -8.1166 N.am      11 UNK        -0.7361 
     68 O          37.2195    2.0902   -6.1407 O.2       11 UNK        -0.4986 
     69 C69        34.4496    1.3408   -5.6284 C.3       12 UNK        -0.0947 
     70 S70        32.8532    0.4530   -5.5690 S.3       12 UNK        -0.2240 
     71 C71        33.3423   -1.1857   -4.9568 C.3       12 UNK         0.0194 
     72 H72        23.9254   -6.0264   -3.9034 H         1 UNK         0.0906 
     73 H73        24.4587   -4.9442   -5.1874 H         1 UNK         0.0906 
     74 H74        25.5780   -6.1375   -4.5241 H         1 UNK         0.0906 
     75 H75        25.3745   -5.9296   -1.8810 H         1 UNK         0.3140 
     76 H76        25.9924   -5.0353   -0.0477 H         1 UNK         0.1085 
     77 H77        27.9076   -3.7110    0.0971 H         1 UNK         0.0836 
     78 H78        28.0843   -4.5942   -1.3820 H         1 UNK         0.0836 
     79 H79        29.9070   -1.1089   -1.3261 H         1 UNK         0.0731 
     80 H80        30.0076   -2.7791   -0.8342 H         1 UNK         0.0731 
     81 H81        31.7862   -0.8641   -2.7628 H         1 UNK         0.1312 
     82 H82        32.2048   -3.3297   -6.2469 H         1 UNK         0.1406 
     83 H83        29.1680   -4.2035   -3.3558 H         1 UNK         0.1631 
     84 H84        31.0512   -5.5916   -6.1269 H         1 UNK         0.0717 
     85 H85        29.6973   -5.8317   -5.0575 H         1 UNK         0.0717 
     86 H86        26.7946   -4.7784   -6.2597 H         1 UNK         0.0934 
     87 H87        27.7644   -3.8775   -5.1366 H         1 UNK         0.0934 
     88 H88        26.7916   -2.9120   -7.8565 H         1 UNK         0.0739 
     89 H89        25.6045   -2.5728   -5.2294 H         1 UNK         0.3093 
     90 H90        23.3935    0.0424   -6.2982 H         1 UNK         0.0818 
     91 H91        21.7908   -1.5426   -5.2693 H         1 UNK         0.0819 
     92 H92        22.3140   -2.1567   -6.8287 H         1 UNK         0.0819 
     93 H93        22.9714   -2.8485   -5.3515 H         1 UNK         0.0819 
     94 H94        23.9624   -1.2381   -3.7738 H         1 UNK         0.3041 
     95 H95        26.4723    0.3298   -2.6295 H         1 UNK         0.0784 
     96 H96        25.8902    2.7041   -2.6931 H         1 UNK         0.0793 
     97 H97        24.2374    2.3755   -2.2073 H         1 UNK         0.0793 
     98 H98        25.5657    2.0842   -1.0830 H         1 UNK         0.0793 
     99 H99        25.3664   -1.1849   -1.5218 H         1 UNK         0.3024 
    100 H100       23.1244   -1.4832    0.4694 H         1 UNK         0.1171 
    101 H101       20.9160   -1.3809   -0.6428 H         1 UNK         0.0786 
    102 H102       21.4932   -2.3755   -1.9736 H         1 UNK         0.0786 
    103 H103       21.3429   -3.0570   -0.3537 H         1 UNK         0.0786 
    104 H104       23.8118   -3.3583   -1.7450 H         1 UNK         0.2977 
    105 H105       27.5923   -0.9999   -4.9276 H         1 UNK         0.3127 
    106 H106       30.0743   -0.0303   -5.7804 H         1 UNK         0.0770 
    107 H107       28.0554    1.4635   -4.0229 H         1 UNK         0.0814 
    108 H108       29.7920    1.7091   -4.0777 H         1 UNK         0.0814 
    109 H109       29.1483    0.2062   -3.4415 H         1 UNK         0.0814 
    110 H110       26.8132    1.3981   -6.3050 H         1 UNK         0.2983 
    111 H111       27.6400    3.6545   -7.8003 H         1 UNK         0.0947 
    112 H112       25.2378    3.6985   -8.5317 H         1 UNK         0.0806 
    113 H113       25.3841    3.4410   -6.8001 H         1 UNK         0.0806 
    114 H114       25.0031    2.0876   -7.8622 H         1 UNK         0.0806 
    115 H115       27.0096    0.3109   -8.8403 H         1 UNK         0.3000 
    116 H116       27.1718    0.8881  -11.6833 H         1 UNK         0.0850 
    117 H117       27.1084   -1.5897  -11.9029 H         1 UNK         0.0810 
    118 H118       25.8400   -1.0249  -10.8256 H         1 UNK         0.0810 
    119 H119       27.2902   -1.7731  -10.1639 H         1 UNK         0.0810 
    120 H120       29.3806   -0.5902   -9.2541 H         1 UNK         0.3040 
    121 H121       31.5055   -1.0653  -11.1193 H         1 UNK         0.0766 
    122 H122       31.1417   -2.4331   -9.0657 H         1 UNK         0.0812 
    123 H123       31.4921   -1.0374   -8.0507 H         1 UNK         0.0812 
    124 H124       32.7529   -1.7319   -9.0611 H         1 UNK         0.0812 
    125 H125       30.7517    1.6644   -9.0190 H         1 UNK         0.3205 
    126 H126       31.5085    3.6925   -8.7625 H         1 UNK         0.0754 
    127 H127       33.1341    4.7937  -10.2458 H         1 UNK         0.0769 
    128 H128       31.9770    3.8860  -11.2066 H         1 UNK         0.0769 
    129 H129       33.6062    3.2598  -10.9550 H         1 UNK         0.0769 
    130 H130       33.9365    1.1696   -8.8251 H         1 UNK         0.2981 
    131 H131       35.3456    0.4098   -7.3338 H         1 UNK         0.0541 
    132 H132       36.1025    3.0505   -8.8894 H         1 UNK         0.3459 
    133 H133       37.6235    3.4455   -8.1254 H         1 UNK         0.3459 
    134 H134       34.2799    2.3433   -5.2326 H         1 UNK         0.0612 
    135 H135       35.1453    0.8628   -4.9371 H         1 UNK         0.0612 
    136 H136       34.0035   -1.0718   -4.0966 H         1 UNK         0.0624 
    137 H137       33.9185   -1.6977   -5.7288 H         1 UNK         0.0624 
@<TRIPOS>BOND
     1    1    2 1    
     2    1   72 1    
     3    1   73 1    
     4    1   74 1    
     5    2    3 2    
     6    2    4 am   BACKBONE|DICT|INTERRES
     7    4    5 1    
     8    4   75 1    
     9    5    6 1    
    10    5   35 1    
    11    5   76 1    
    12    6    7 1    
    13    6   77 1    
    14    6   78 1    
    15    7    8 1    
    16    8    9 1    
    17    8   79 1    
    18    8   80 1    
    19    9   10 ar   
    20    9   14 ar   
    21   10   11 ar   
    22   10   81 1    
    23   11   12 ar   
    24   11   71 1    
    25   12   13 ar   
    26   12   82 1    
    27   13   14 ar   
    28   13   15 1    
    29   14   83 1    
    30   15   16 1    
    31   15   84 1    
    32   15   85 1    
    33   16   17 1    
    34   17   18 1    
    35   17   86 1    
    36   17   87 1    
    37   18   19 1    
    38   18   37 1    
    39   18   88 1    
    40   19   20 am   BACKBONE|DICT|INTERRES
    41   19   89 1    
    42   20   21 2    
    43   20   22 1    
    44   22   23 1    
    45   22   24 1    
    46   22   90 1    
    47   23   91 1    
    48   23   92 1    
    49   23   93 1    
    50   24   25 am   BACKBONE|DICT|INTERRES
    51   24   94 1    
    52   25   26 2    
    53   25   27 1    
    54   27   28 1    
    55   27   29 1    
    56   27   95 1    
    57   28   96 1    
    58   28   97 1    
    59   28   98 1    
    60   29   30 am   BACKBONE|DICT|INTERRES
    61   29   99 1    
    62   30   31 2    
    63   30   32 1    
    64   32   33 1    
    65   32   34 1    
    66   32  100 1    
    67   33  101 1    
    68   33  102 1    
    69   33  103 1    
    70   34   35 am   BACKBONE|DICT|INTERRES
    71   34  104 1    
    72   35   36 2    
    73   37   38 2    
    74   37   39 am   BACKBONE|DICT|INTERRES
    75   39   40 1    
    76   39  105 1    
    77   40   41 1    
    78   40   42 1    
    79   40  106 1    
    80   41  107 1    
    81   41  108 1    
    82   41  109 1    
    83   42   43 2    
    84   42   44 am   BACKBONE|DICT|INTERRES
    85   44   45 1    
    86   44  110 1    
    87   45   46 1    
    88   45   47 1    
    89   45  111 1    
    90   46  112 1    
    91   46  113 1    
    92   46  114 1    
    93   47   48 2    
    94   47   49 am   BACKBONE|DICT|INTERRES
    95   49   50 1    
    96   49  115 1    
    97   50   51 1    
    98   50   52 1    
    99   50  116 1    
   100   51  117 1    
   101   51  118 1    
   102   51  119 1    
   103   52   53 2    
   104   52   54 am   BACKBONE|DICT|INTERRES
   105   54   55 1    
   106   54  120 1    
   107   55   56 1    
   108   55   57 1    
   109   55  121 1    
   110   56  122 1    
   111   56  123 1    
   112   56  124 1    
   113   57   58 2    
   114   57   59 am   BACKBONE|DICT|INTERRES
   115   59   60 1    
   116   59  125 1    
   117   60   61 1    
   118   60   62 1    
   119   60  126 1    
   120   61  127 1    
   121   61  128 1    
   122   61  129 1    
   123   62   63 2    
   124   62   64 am   BACKBONE|DICT|INTERRES
   125   64   65 1    
   126   64  130 1    
   127   65   66 1    
   128   65   69 1    
   129   65  131 1    
   130   66   67 am   BACKBONE|DICT|INTERRES
   131   66   68 2    
   132   67  132 1    
   133   67  133 1    
   134   69   70 1    
   135   69  134 1    
   136   69  135 1    
   137   70   71 1    
   138   71  136 1    
   139   71  137 1    
@<TRIPOS>SUBSTRUCTURE
     1 UNK         1 GROUP             0       ****    0 ROOT    
