@<TRIPOS>MOLECULE
3R137
137   139    1
SMALL
USER_CHARGES


@<TRIPOS>ATOM
      1 CA         25.0641   -0.8349   -0.9389 C.3       0 UNK        -0.2020 
      2 C          25.8936   -1.7717   -1.8020 C.2       0 UNK         0.4855 
      3 O          26.1056   -1.4889   -2.9820 O.2       0 UNK        -0.5197 
      4 N          26.3702   -2.8840   -1.2305 N.am      1 UNK        -0.4892 
      5 CA         27.2010   -3.8865   -1.9038 C.3       1 UNK         0.0835 
      6 C6         27.7247   -4.9374   -0.8951 C.3       12 UNK        -0.0855 
      7 S7         29.1723   -5.8507   -1.5230 S.3       12 UNK        -0.2931 
      8 C8         30.5461   -4.9194   -0.7737 C.3       12 UNK         0.0378 
      9 C9         30.8072   -3.6076   -1.5009 C.ar      12 UNK        -0.0802 
     10 C10        31.4975   -3.6162   -2.7157 C.ar      12 UNK        -0.0944 
     11 C11        31.7901   -2.4225   -3.3812 C.ar      12 UNK        -0.0787 
     12 C12        31.3885   -1.2090   -2.8112 C.ar      12 UNK        -0.0862 
     13 C13        30.6787   -1.1846   -1.6070 C.ar      12 UNK        -0.0733 
     14 C14        30.3905   -2.3887   -0.9550 C.ar      12 UNK        -0.0832 
     15 C15        30.2606    0.1429   -0.9885 C.3       12 UNK         0.0240 
     16 S16        28.6507    0.7253   -1.6126 S.3       12 UNK        -0.2522 
     17 C17        29.0891    1.4834   -3.2162 C.3       12 UNK        -0.0967 
     18 CA         28.4750    0.7155   -4.4221 C.3       5 UNK         0.0660 
     19 N          27.0066    0.6999   -4.3812 N.am      5 UNK        -0.4015 
     20 C          26.1725    1.7005   -4.7029 C.2       4 UNK         0.4946 
     21 O          26.5510    2.7909   -5.1368 O.2       4 UNK        -0.5353 
     22 CA         24.6669    1.4330   -4.5232 C.3       4 UNK         0.0277 
     23 CB         23.7824    2.4228   -5.3093 C.3       4 UNK        -0.1981 
     24 N          24.3248    0.0590   -4.8955 N.am      4 UNK        -0.4209 
     25 C          23.3008   -0.6465   -4.3969 C.2       3 UNK         0.4942 
     26 O          22.5205   -0.2210   -3.5449 O.2       3 UNK        -0.5208 
     27 CA         23.1176   -2.0714   -4.9372 C.3       3 UNK         0.0250 
     28 CB         22.3148   -2.0100   -6.2574 C.3       3 UNK        -0.1990 
     29 N          24.4206   -2.7427   -5.0666 N.am      3 UNK        -0.4232 
     30 C          24.6885   -3.9126   -5.6692 C.2       2 UNK         0.4993 
     31 O          23.8613   -4.5887   -6.2804 O.2       2 UNK        -0.5286 
     32 CA         26.1316   -4.4436   -5.5635 C.3       2 UNK         0.0209 
     33 CB         26.9802   -3.9512   -6.7482 C.3       2 UNK        -0.1931 
     34 N          26.8023   -4.0824   -4.3132 N.am      2 UNK        -0.4546 
     35 C          26.4499   -4.5194   -3.0958 C.2       1 UNK         0.5154 
     36 O          25.5493   -5.3365   -2.8909 O.2       1 UNK        -0.5181 
     37 C          28.9879    1.1880   -5.8029 C.2       5 UNK         0.5014 
     38 O          28.6647    0.5547   -6.8104 O.2       5 UNK        -0.5248 
     39 N          29.7271    2.3072   -5.8361 N.am      6 UNK        -0.4434 
     40 CA         30.3187    2.9171   -7.0309 C.3       6 UNK         0.0363 
     41 CB         31.2461    4.0643   -6.5978 C.3       6 UNK        -0.1936 
     42 C          29.3094    3.4022   -8.0902 C.2       6 UNK         0.5081 
     43 O          29.7136    3.6425   -9.2283 O.2       6 UNK        -0.5248 
     44 N          28.0287    3.5480   -7.7214 N.am      7 UNK        -0.4718 
     45 CA         26.9477    3.8645   -8.6577 C.3       7 UNK         0.0273 
     46 CB         25.8725    4.6872   -7.9291 C.3       7 UNK        -0.1935 
     47 C          26.3328    2.6072   -9.3017 C.2       7 UNK         0.5018 
     48 O          25.5850    2.7511  -10.2700 O.2       7 UNK        -0.5186 
     49 N          26.6294    1.4144   -8.7640 N.am      8 UNK        -0.4240 
     50 CA         26.0777    0.1354   -9.2182 C.3       8 UNK         0.0235 
     51 CB         25.4512   -0.5901   -8.0196 C.3       8 UNK        -0.2000 
     52 C          27.1299   -0.7571   -9.8905 C.2       8 UNK         0.4941 
     53 O          26.7951   -1.4465  -10.8549 O.2       8 UNK        -0.5273 
     54 N          28.3666   -0.7419   -9.3829 N.am      9 UNK        -0.4262 
     55 CA         29.4981   -1.5151   -9.8913 C.3       9 UNK         0.0264 
     56 CB         29.7030   -2.7459   -8.9905 C.3       9 UNK        -0.1955 
     57 C          30.7473   -0.6272   -9.9261 C.2       9 UNK         0.5031 
     58 O          30.7353    0.4747   -9.3757 O.2       9 UNK        -0.5390 
     59 N          31.8217   -1.1175  -10.5576 N.am      10 UNK        -0.4204 
     60 CA         33.1071   -0.4231  -10.7153 C.3       10 UNK         0.0237 
     61 CB         33.8721   -1.0571  -11.8932 C.3       10 UNK        -0.1985 
     62 C          33.9439   -0.3816   -9.4162 C.2       10 UNK         0.4970 
     63 O          35.1146   -0.7668   -9.4225 O.2       10 UNK        -0.4914 
     64 N          33.3245    0.0760   -8.3239 N.am      11 UNK        -0.4285 
     65 CA         33.9215    0.1907   -6.9843 C.3       11 UNK         0.1007 
     66 C          34.8114    1.4520   -6.7882 C.2       11 UNK         0.5703 
     67 N          34.8323    2.4054   -7.7126 N.am      11 UNK        -0.7361 
     68 O          35.5039    1.5627   -5.7795 O.2       11 UNK        -0.4986 
     69 C69        32.8494    0.0877   -5.8677 C.3       12 UNK        -0.0947 
     70 S70        31.8414   -1.4291   -5.9985 S.3       12 UNK        -0.2240 
     71 C71        32.5705   -2.4674   -4.6917 C.3       12 UNK         0.0194 
     72 H72        24.0279   -0.8328   -1.2746 H         1 UNK         0.0906 
     73 H73        25.0832   -1.1242    0.1115 H         1 UNK         0.0906 
     74 H74        25.4498    0.1813   -1.0167 H         1 UNK         0.0906 
     75 H75        26.1348   -3.0833   -0.2688 H         1 UNK         0.3140 
     76 H76        28.0631   -3.3461   -2.3002 H         1 UNK         0.1085 
     77 H77        28.0069   -4.4525    0.0407 H         1 UNK         0.0836 
     78 H78        26.9439   -5.6518   -0.6266 H         1 UNK         0.0836 
     79 H79        30.3501   -4.7487    0.2860 H         1 UNK         0.0731 
     80 H80        31.4460   -5.5351   -0.8148 H         1 UNK         0.0731 
     81 H81        31.8168   -4.5601   -3.1367 H         1 UNK         0.1312 
     82 H82        31.6288   -0.2801   -3.3055 H         1 UNK         0.1406 
     83 H83        29.8535   -2.3748   -0.0161 H         1 UNK         0.1631 
     84 H84        31.0253    0.9021   -1.1596 H         1 UNK         0.0717 
     85 H85        30.1884    0.0354    0.0949 H         1 UNK         0.0717 
     86 H86        28.7364    2.5164   -3.1989 H         1 UNK         0.0934 
     87 H87        30.1757    1.5323   -3.2933 H         1 UNK         0.0934 
     88 H88        28.7892   -0.3267   -4.3417 H         1 UNK         0.0739 
     89 H89        26.6082   -0.1375   -3.9560 H         1 UNK         0.3093 
     90 H90        24.4677    1.5668   -3.4578 H         1 UNK         0.0818 
     91 H91        22.7243    2.2594   -5.1050 H         1 UNK         0.0819 
     92 H92        24.0040    3.4551   -5.0355 H         1 UNK         0.0819 
     93 H93        23.9337    2.3253   -6.3847 H         1 UNK         0.0819 
     94 H94        24.9115   -0.3697   -5.5961 H         1 UNK         0.3041 
     95 H95        22.5355   -2.6283   -4.2007 H         1 UNK         0.0784 
     96 H96        21.4647   -1.3313   -6.1714 H         1 UNK         0.0793 
     97 H97        22.9222   -1.6650   -7.0923 H         1 UNK         0.0793 
     98 H98        21.9020   -2.9823   -6.5236 H         1 UNK         0.0793 
     99 H99        25.1610   -2.3326   -4.5026 H         1 UNK         0.3024 
    100 H100       26.0765   -5.5337   -5.6103 H         1 UNK         0.1171 
    101 H101       26.4962   -4.1772   -7.6996 H         1 UNK         0.0786 
    102 H102       27.9568   -4.4355   -6.7612 H         1 UNK         0.0786 
    103 H103       27.1441   -2.8740   -6.7131 H         1 UNK         0.0786 
    104 H104       27.5337   -3.3892   -4.3790 H         1 UNK         0.2977 
    105 H105       29.8848    2.7989   -4.9694 H         1 UNK         0.3127 
    106 H106       30.9352    2.1577   -7.5104 H         1 UNK         0.0770 
    107 H107       30.6977    4.8540   -6.0830 H         1 UNK         0.0814 
    108 H108       31.7355    4.5173   -7.4613 H         1 UNK         0.0814 
    109 H109       32.0353    3.7102   -5.9341 H         1 UNK         0.0814 
    110 H110       27.7553    3.3383   -6.7657 H         1 UNK         0.2983 
    111 H111       27.3379    4.4811   -9.4706 H         1 UNK         0.0947 
    112 H112       25.0737    4.9791   -8.6122 H         1 UNK         0.0806 
    113 H113       26.2901    5.6026   -7.5100 H         1 UNK         0.0806 
    114 H114       25.4146    4.1260   -7.1160 H         1 UNK         0.0806 
    115 H115       27.3001    1.3740   -8.0028 H         1 UNK         0.3000 
    116 H116       25.2865    0.3016   -9.9526 H         1 UNK         0.0850 
    117 H117       25.0909   -1.5804   -8.3029 H         1 UNK         0.0810 
    118 H118       26.1683   -0.7187   -7.2087 H         1 UNK         0.0810 
    119 H119       24.5981   -0.0273   -7.6431 H         1 UNK         0.0810 
    120 H120       28.5862   -0.1365   -8.5940 H         1 UNK         0.3040 
    121 H121       29.3056   -1.8437  -10.9147 H         1 UNK         0.0766 
    122 H122       28.8445   -3.4150   -9.0451 H         1 UNK         0.0812 
    123 H123       29.8346   -2.4602   -7.9466 H         1 UNK         0.0812 
    124 H124       30.5791   -3.3235   -9.2866 H         1 UNK         0.0812 
    125 H125       31.7654   -2.0447  -10.9540 H         1 UNK         0.3205 
    126 H126       32.8996    0.6153  -10.9832 H         1 UNK         0.0754 
    127 H127       34.8066   -0.5277  -12.0848 H         1 UNK         0.0769 
    128 H128       33.2886   -1.0176  -12.8133 H         1 UNK         0.0769 
    129 H129       34.1219   -2.1007  -11.6976 H         1 UNK         0.0769 
    130 H130       32.3512    0.3543   -8.4189 H         1 UNK         0.2981 
    131 H131       34.5934   -0.6599   -6.8550 H         1 UNK         0.0541 
    132 H132       34.2730    2.3223   -8.5456 H         1 UNK         0.3459 
    133 H133       35.4184    3.2134   -7.5746 H         1 UNK         0.3459 
    134 H134       32.1775    0.9435   -5.9070 H         1 UNK         0.0612 
    135 H135       33.3198    0.1242   -4.8839 H         1 UNK         0.0612 
    136 H136       33.6065   -2.1795   -4.5097 H         1 UNK         0.0624 
    137 H137       32.6041   -3.4893   -5.0721 H         1 UNK         0.0624 
@<TRIPOS>BOND
     1    1    2 1    
     2    1   72 1    
     3    1   73 1    
     4    1   74 1    
     5    2    3 2    
     6    2    4 am   BACKBONE|DICT|INTERRES
     7    4    5 1    
     8    4   75 1    
     9    5    6 1    
    10    5   35 1    
    11    5   76 1    
    12    6    7 1    
    13    6   77 1    
    14    6   78 1    
    15    7    8 1    
    16    8    9 1    
    17    8   79 1    
    18    8   80 1    
    19    9   10 ar   
    20    9   14 ar   
    21   10   11 ar   
    22   10   81 1    
    23   11   12 ar   
    24   11   71 1    
    25   12   13 ar   
    26   12   82 1    
    27   13   14 ar   
    28   13   15 1    
    29   14   83 1    
    30   15   16 1    
    31   15   84 1    
    32   15   85 1    
    33   16   17 1    
    34   17   18 1    
    35   17   86 1    
    36   17   87 1    
    37   18   19 1    
    38   18   37 1    
    39   18   88 1    
    40   19   20 am   BACKBONE|DICT|INTERRES
    41   19   89 1    
    42   20   21 2    
    43   20   22 1    
    44   22   23 1    
    45   22   24 1    
    46   22   90 1    
    47   23   91 1    
    48   23   92 1    
    49   23   93 1    
    50   24   25 am   BACKBONE|DICT|INTERRES
    51   24   94 1    
    52   25   26 2    
    53   25   27 1    
    54   27   28 1    
    55   27   29 1    
    56   27   95 1    
    57   28   96 1    
    58   28   97 1    
    59   28   98 1    
    60   29   30 am   BACKBONE|DICT|INTERRES
    61   29   99 1    
    62   30   31 2    
    63   30   32 1    
    64   32   33 1    
    65   32   34 1    
    66   32  100 1    
    67   33  101 1    
    68   33  102 1    
    69   33  103 1    
    70   34   35 am   BACKBONE|DICT|INTERRES
    71   34  104 1    
    72   35   36 2    
    73   37   38 2    
    74   37   39 am   BACKBONE|DICT|INTERRES
    75   39   40 1    
    76   39  105 1    
    77   40   41 1    
    78   40   42 1    
    79   40  106 1    
    80   41  107 1    
    81   41  108 1    
    82   41  109 1    
    83   42   43 2    
    84   42   44 am   BACKBONE|DICT|INTERRES
    85   44   45 1    
    86   44  110 1    
    87   45   46 1    
    88   45   47 1    
    89   45  111 1    
    90   46  112 1    
    91   46  113 1    
    92   46  114 1    
    93   47   48 2    
    94   47   49 am   BACKBONE|DICT|INTERRES
    95   49   50 1    
    96   49  115 1    
    97   50   51 1    
    98   50   52 1    
    99   50  116 1    
   100   51  117 1    
   101   51  118 1    
   102   51  119 1    
   103   52   53 2    
   104   52   54 am   BACKBONE|DICT|INTERRES
   105   54   55 1    
   106   54  120 1    
   107   55   56 1    
   108   55   57 1    
   109   55  121 1    
   110   56  122 1    
   111   56  123 1    
   112   56  124 1    
   113   57   58 2    
   114   57   59 am   BACKBONE|DICT|INTERRES
   115   59   60 1    
   116   59  125 1    
   117   60   61 1    
   118   60   62 1    
   119   60  126 1    
   120   61  127 1    
   121   61  128 1    
   122   61  129 1    
   123   62   63 2    
   124   62   64 am   BACKBONE|DICT|INTERRES
   125   64   65 1    
   126   64  130 1    
   127   65   66 1    
   128   65   69 1    
   129   65  131 1    
   130   66   67 am   BACKBONE|DICT|INTERRES
   131   66   68 2    
   132   67  132 1    
   133   67  133 1    
   134   69   70 1    
   135   69  134 1    
   136   69  135 1    
   137   70   71 1    
   138   71  136 1    
   139   71  137 1    
@<TRIPOS>SUBSTRUCTURE
     1 UNK         1 GROUP             0       ****    0 ROOT    
