@<TRIPOS>MOLECULE
3R137
137   139    1
SMALL
USER_CHARGES


@<TRIPOS>ATOM
      1 CA         26.2758   -5.6328    1.4004 C.3       0 UNK        -0.2020 
      2 C          27.4521   -5.3297    0.4764 C.2       0 UNK         0.4855 
      3 O          28.0754   -6.2581   -0.0331 O.2       0 UNK        -0.5197 
      4 N          27.8026   -4.0598    0.2273 N.am      1 UNK        -0.4892 
      5 CA         27.1414   -2.8369    0.7069 C.3       1 UNK         0.0835 
      6 C6         28.0972   -1.6153    0.6247 C.3       12 UNK        -0.0855 
      7 S7         28.5238   -1.1057   -1.0797 S.3       12 UNK        -0.2931 
      8 C8         30.1307   -1.9126   -1.3350 C.3       12 UNK         0.0378 
      9 C9         30.3667   -2.1658   -2.8152 C.ar      12 UNK        -0.0802 
     10 C10        31.1368   -1.2784   -3.5712 C.ar      12 UNK        -0.0944 
     11 C11        31.3676   -1.5182   -4.9292 C.ar      12 UNK        -0.0787 
     12 C12        30.8224   -2.6603   -5.5278 C.ar      12 UNK        -0.0862 
     13 C13        30.0418   -3.5519   -4.7840 C.ar      12 UNK        -0.0733 
     14 C14        29.8170   -3.2959   -3.4281 C.ar      12 UNK        -0.0832 
     15 C15        29.4809   -4.8199   -5.4207 C.3       12 UNK         0.0240 
     16 S16        28.3939   -4.5104   -6.8518 S.3       12 UNK        -0.2522 
     17 C17        26.9983   -3.5962   -6.1087 C.3       12 UNK        -0.0967 
     18 CA         26.5947   -2.3696   -6.9641 C.3       5 UNK         0.0660 
     19 N          25.2668   -1.8545   -6.6208 N.am      5 UNK        -0.4015 
     20 C          24.5660   -1.0053   -7.3891 C.2       4 UNK         0.4946 
     21 O          24.9415   -0.6113   -8.4925 O.2       4 UNK        -0.5353 
     22 CA         23.2384   -0.4727   -6.8230 C.3       4 UNK         0.0277 
     23 CB         22.0932   -1.4553   -7.1146 C.3       4 UNK        -0.1981 
     24 N          23.2990   -0.1992   -5.3863 N.am      4 UNK        -0.4209 
     25 C          24.0787    0.7358   -4.8242 C.2       3 UNK         0.4942 
     26 O          24.7775    1.5198   -5.4645 O.2       3 UNK        -0.5208 
     27 CA         24.1282    0.7688   -3.2869 C.3       3 UNK         0.0250 
     28 CB         23.0581    1.7234   -2.7344 C.3       3 UNK        -0.1990 
     29 N          23.9858   -0.5489   -2.6552 N.am      3 UNK        -0.4232 
     30 C          24.7932   -1.5955   -2.8759 C.2       2 UNK         0.4993 
     31 O          25.7301   -1.5853   -3.6793 O.2       2 UNK        -0.5286 
     32 CA         24.4924   -2.8794   -2.0914 C.3       2 UNK         0.0209 
     33 CB         24.2955   -4.0734   -3.0414 C.3       2 UNK        -0.1931 
     34 N          25.6050   -3.1595   -1.1907 N.am      2 UNK        -0.4546 
     35 C          25.7993   -2.5576   -0.0090 C.2       1 UNK         0.5154 
     36 O          24.9748   -1.8086    0.5173 O.2       1 UNK        -0.5181 
     37 C          27.6406   -1.2447   -6.8970 C.2       5 UNK         0.5014 
     38 O          28.4151   -1.0884   -7.8420 O.2       5 UNK        -0.5248 
     39 N          27.6002   -0.4499   -5.8163 N.am      6 UNK        -0.4434 
     40 CA         28.4529    0.7247   -5.6260 C.3       6 UNK         0.0363 
     41 CB         28.1836    1.3569   -4.2533 C.3       6 UNK        -0.1936 
     42 C          28.3080    1.7582   -6.7541 C.2       6 UNK         0.5081 
     43 O          29.3202    2.2128   -7.2844 O.2       6 UNK        -0.5248 
     44 N          27.0616    2.0707   -7.1340 N.am      7 UNK        -0.4718 
     45 CA         26.7347    2.9640   -8.2466 C.3       7 UNK         0.0273 
     46 CB         25.2241    3.2477   -8.2505 C.3       7 UNK        -0.1935 
     47 C          27.1871    2.4276   -9.6158 C.2       7 UNK         0.5018 
     48 O          27.6956    3.2061  -10.4233 O.2       7 UNK        -0.5186 
     49 N          26.9883    1.1240   -9.8588 N.am      8 UNK        -0.4240 
     50 CA         27.3388    0.4634  -11.1168 C.3       8 UNK         0.0235 
     51 CB         26.6199   -0.8924  -11.2150 C.3       8 UNK        -0.2000 
     52 C          28.8526    0.2854  -11.3057 C.2       8 UNK         0.4941 
     53 O          29.3711    0.6370  -12.3665 O.2       8 UNK        -0.5273 
     54 N          29.5276   -0.2862  -10.2997 N.am      9 UNK        -0.4262 
     55 CA         30.9394   -0.6659  -10.3846 C.3       9 UNK         0.0264 
     56 CB         31.1978   -1.8644   -9.4602 C.3       9 UNK        -0.1955 
     57 C          31.9082    0.4799  -10.0593 C.2       9 UNK         0.5031 
     58 O          33.0592    0.4137  -10.4948 O.2       9 UNK        -0.5390 
     59 N          31.4606    1.4842   -9.2889 N.am      10 UNK        -0.4204 
     60 CA         32.1942    2.6664   -8.8070 C.3       10 UNK         0.0237 
     61 CB         32.7083    3.5349   -9.9725 C.3       10 UNK        -0.1985 
     62 C          33.3186    2.3611   -7.7987 C.2       10 UNK         0.4970 
     63 O          33.4058    3.0464   -6.7796 O.2       10 UNK        -0.4914 
     64 N          34.1509    1.3555   -8.0967 N.am      11 UNK        -0.4285 
     65 CA         35.3104    0.8983   -7.3103 C.3       11 UNK         0.1007 
     66 C          36.4698    1.9380   -7.2011 C.2       11 UNK         0.5703 
     67 N          36.5383    2.9440   -8.0657 N.am      11 UNK        -0.7361 
     68 O          37.3438    1.8177   -6.3453 O.2       11 UNK        -0.4986 
     69 C69        34.9094    0.2882   -5.9354 C.3       12 UNK        -0.0947 
     70 S70        33.8542   -1.1940   -6.0905 S.3       12 UNK        -0.2240 
     71 C71        32.1954   -0.5330   -5.7429 C.3       12 UNK         0.0194 
     72 H72        26.4094   -5.1657    2.3754 H         1 UNK         0.0906 
     73 H73        25.3376   -5.2888    0.9670 H         1 UNK         0.0906 
     74 H74        26.1883   -6.7069    1.5627 H         1 UNK         0.0906 
     75 H75        28.5924   -3.8980   -0.3784 H         1 UNK         0.3140 
     76 H76        26.9018   -2.9751    1.7628 H         1 UNK         0.1085 
     77 H77        27.6403   -0.7568    1.1211 H         1 UNK         0.0836 
     78 H78        29.0121   -1.8155    1.1849 H         1 UNK         0.0836 
     79 H79        30.1764   -2.8575   -0.7929 H         1 UNK         0.0731 
     80 H80        30.9190   -1.2835   -0.9184 H         1 UNK         0.0731 
     81 H81        31.5561   -0.3995   -3.1008 H         1 UNK         0.1312 
     82 H82        31.0077   -2.8630   -6.5722 H         1 UNK         0.1406 
     83 H83        29.2211   -3.9832   -2.8438 H         1 UNK         0.1631 
     84 H84        28.9299   -5.4133   -4.6893 H         1 UNK         0.0717 
     85 H85        30.3153   -5.4413   -5.7485 H         1 UNK         0.0717 
     86 H86        26.1605   -4.2913   -6.0371 H         1 UNK         0.0934 
     87 H87        27.2344   -3.3033   -5.0840 H         1 UNK         0.0934 
     88 H88        26.5407   -2.6970   -8.0052 H         1 UNK         0.0739 
     89 H89        24.9426   -2.0472   -5.6829 H         1 UNK         0.3093 
     90 H90        23.0187    0.4685   -7.3319 H         1 UNK         0.0818 
     91 H91        21.1322   -1.0506   -6.7965 H         1 UNK         0.0819 
     92 H92        22.0183   -1.6584   -8.1839 H         1 UNK         0.0819 
     93 H93        22.2392   -2.4118   -6.6110 H         1 UNK         0.0819 
     94 H94        22.7461   -0.7883   -4.7812 H         1 UNK         0.3041 
     95 H95        25.1085    1.1564   -3.0031 H         1 UNK         0.0784 
     96 H96        23.1581    2.7171   -3.1740 H         1 UNK         0.0793 
     97 H97        22.0490    1.3709   -2.9519 H         1 UNK         0.0793 
     98 H98        23.1489    1.8397   -1.6542 H         1 UNK         0.0793 
     99 H99        23.2514   -0.6387   -1.9673 H         1 UNK         0.3024 
    100 H100       23.5773   -2.7494   -1.5088 H         1 UNK         0.1171 
    101 H101       23.4803   -3.8867   -3.7417 H         1 UNK         0.0786 
    102 H102       25.1912   -4.2791   -3.6284 H         1 UNK         0.0786 
    103 H103       24.0456   -4.9793   -2.4888 H         1 UNK         0.0786 
    104 H104       26.3593   -3.7173   -1.5632 H         1 UNK         0.2977 
    105 H105       26.9440   -0.6728   -5.0740 H         1 UNK         0.3127 
    106 H106       29.4849    0.3767   -5.6382 H         1 UNK         0.0770 
    107 H107       27.1659    1.7376   -4.1739 H         1 UNK         0.0814 
    108 H108       28.8601    2.1928   -4.0717 H         1 UNK         0.0814 
    109 H109       28.3370    0.6356   -3.4516 H         1 UNK         0.0814 
    110 H110       26.2781    1.6894   -6.6078 H         1 UNK         0.2983 
    111 H111       27.2579    3.9075   -8.0761 H         1 UNK         0.0947 
    112 H112       24.9541    3.9234   -9.0632 H         1 UNK         0.0806 
    113 H113       24.9071    3.7173   -7.3191 H         1 UNK         0.0806 
    114 H114       24.6431    2.3332   -8.3770 H         1 UNK         0.0806 
    115 H115       26.5228    0.5561   -9.1578 H         1 UNK         0.3000 
    116 H116       26.9775    1.0892  -11.9360 H         1 UNK         0.0850 
    117 H117       26.8748   -1.4056  -12.1432 H         1 UNK         0.0810 
    118 H118       25.5372   -0.7667  -11.2019 H         1 UNK         0.0810 
    119 H119       26.8883   -1.5537  -10.3901 H         1 UNK         0.0810 
    120 H120       29.0334   -0.5455   -9.4445 H         1 UNK         0.3040 
    121 H121       31.1563   -0.9882  -11.4055 H         1 UNK         0.0766 
    122 H122       30.9689   -1.6177   -8.4262 H         1 UNK         0.0812 
    123 H123       32.2417   -2.1788   -9.5002 H         1 UNK         0.0812 
    124 H124       30.5864   -2.7223   -9.7403 H         1 UNK         0.0812 
    125 H125       30.5122    1.4199   -8.9343 H         1 UNK         0.3205 
    126 H126       31.4593    3.2671   -8.2703 H         1 UNK         0.0754 
    127 H127       33.1529    4.4590   -9.6005 H         1 UNK         0.0769 
    128 H128       31.8958    3.8141  -10.6434 H         1 UNK         0.0769 
    129 H129       33.4698    3.0254  -10.5633 H         1 UNK         0.0769 
    130 H130       33.9896    0.8739   -8.9785 H         1 UNK         0.2981 
    131 H131       35.7443    0.0893   -7.8987 H         1 UNK         0.0541 
    132 H132       37.2969    3.6038   -7.9956 H         1 UNK         0.3459 
    133 H133       35.8412    3.0480   -8.7848 H         1 UNK         0.3459 
    134 H134       34.4351    1.0347   -5.2977 H         1 UNK         0.0612 
    135 H135       35.7987   -0.0360   -5.3925 H         1 UNK         0.0612 
    136 H136       31.6931   -0.3072   -6.6833 H         1 UNK         0.0624 
    137 H137       32.2694    0.4163   -5.2111 H         1 UNK         0.0624 
@<TRIPOS>BOND
     1    1    2 1    
     2    1   72 1    
     3    1   73 1    
     4    1   74 1    
     5    2    3 2    
     6    2    4 am   BACKBONE|DICT|INTERRES
     7    4    5 1    
     8    4   75 1    
     9    5    6 1    
    10    5   35 1    
    11    5   76 1    
    12    6    7 1    
    13    6   77 1    
    14    6   78 1    
    15    7    8 1    
    16    8    9 1    
    17    8   79 1    
    18    8   80 1    
    19    9   10 ar   
    20    9   14 ar   
    21   10   11 ar   
    22   10   81 1    
    23   11   12 ar   
    24   11   71 1    
    25   12   13 ar   
    26   12   82 1    
    27   13   14 ar   
    28   13   15 1    
    29   14   83 1    
    30   15   16 1    
    31   15   84 1    
    32   15   85 1    
    33   16   17 1    
    34   17   18 1    
    35   17   86 1    
    36   17   87 1    
    37   18   19 1    
    38   18   37 1    
    39   18   88 1    
    40   19   20 am   BACKBONE|DICT|INTERRES
    41   19   89 1    
    42   20   21 2    
    43   20   22 1    
    44   22   23 1    
    45   22   24 1    
    46   22   90 1    
    47   23   91 1    
    48   23   92 1    
    49   23   93 1    
    50   24   25 am   BACKBONE|DICT|INTERRES
    51   24   94 1    
    52   25   26 2    
    53   25   27 1    
    54   27   28 1    
    55   27   29 1    
    56   27   95 1    
    57   28   96 1    
    58   28   97 1    
    59   28   98 1    
    60   29   30 am   BACKBONE|DICT|INTERRES
    61   29   99 1    
    62   30   31 2    
    63   30   32 1    
    64   32   33 1    
    65   32   34 1    
    66   32  100 1    
    67   33  101 1    
    68   33  102 1    
    69   33  103 1    
    70   34   35 am   BACKBONE|DICT|INTERRES
    71   34  104 1    
    72   35   36 2    
    73   37   38 2    
    74   37   39 am   BACKBONE|DICT|INTERRES
    75   39   40 1    
    76   39  105 1    
    77   40   41 1    
    78   40   42 1    
    79   40  106 1    
    80   41  107 1    
    81   41  108 1    
    82   41  109 1    
    83   42   43 2    
    84   42   44 am   BACKBONE|DICT|INTERRES
    85   44   45 1    
    86   44  110 1    
    87   45   46 1    
    88   45   47 1    
    89   45  111 1    
    90   46  112 1    
    91   46  113 1    
    92   46  114 1    
    93   47   48 2    
    94   47   49 am   BACKBONE|DICT|INTERRES
    95   49   50 1    
    96   49  115 1    
    97   50   51 1    
    98   50   52 1    
    99   50  116 1    
   100   51  117 1    
   101   51  118 1    
   102   51  119 1    
   103   52   53 2    
   104   52   54 am   BACKBONE|DICT|INTERRES
   105   54   55 1    
   106   54  120 1    
   107   55   56 1    
   108   55   57 1    
   109   55  121 1    
   110   56  122 1    
   111   56  123 1    
   112   56  124 1    
   113   57   58 2    
   114   57   59 am   BACKBONE|DICT|INTERRES
   115   59   60 1    
   116   59  125 1    
   117   60   61 1    
   118   60   62 1    
   119   60  126 1    
   120   61  127 1    
   121   61  128 1    
   122   61  129 1    
   123   62   63 2    
   124   62   64 am   BACKBONE|DICT|INTERRES
   125   64   65 1    
   126   64  130 1    
   127   65   66 1    
   128   65   69 1    
   129   65  131 1    
   130   66   67 am   BACKBONE|DICT|INTERRES
   131   66   68 2    
   132   67  132 1    
   133   67  133 1    
   134   69   70 1    
   135   69  134 1    
   136   69  135 1    
   137   70   71 1    
   138   71  136 1    
   139   71  137 1    
@<TRIPOS>SUBSTRUCTURE
     1 UNK         1 GROUP             0       ****    0 ROOT    
