@<TRIPOS>MOLECULE
3R137
137   139    1
SMALL
USER_CHARGES


@<TRIPOS>ATOM
      1 CA         26.9957   -4.0659    2.9521 C.3       0 UNK        -0.2020 
      2 C          26.7061   -2.7276    2.2895 C.2       0 UNK         0.4855 
      3 O          25.5967   -2.2091    2.4163 O.2       0 UNK        -0.5197 
      4 N          27.6969   -2.1638    1.5865 N.am      1 UNK        -0.4892 
      5 CA         27.6041   -0.8987    0.8446 C.3       1 UNK         0.0835 
      6 C6         29.0022   -0.3287    0.4831 C.3       12 UNK        -0.0855 
      7 S7         30.1646   -1.5732   -0.1833 S.3       12 UNK        -0.2931 
      8 C8         30.4718   -0.9345   -1.8549 C.3       12 UNK         0.0378 
      9 C9         30.9900   -2.0386   -2.7605 C.ar      12 UNK        -0.0802 
     10 C10        32.3360   -2.1060   -3.1326 C.ar      12 UNK        -0.0944 
     11 C11        32.7796   -3.1100   -4.0017 C.ar      12 UNK        -0.0787 
     12 C12        31.8637   -4.0409   -4.5070 C.ar      12 UNK        -0.0862 
     13 C13        30.5159   -3.9754   -4.1438 C.ar      12 UNK        -0.0733 
     14 C14        30.0950   -2.9903   -3.2477 C.ar      12 UNK        -0.0832 
     15 C15        29.4955   -4.9357   -4.7415 C.3       12 UNK         0.0240 
     16 S16        28.8089   -4.3399   -6.3290 S.3       12 UNK        -0.2522 
     17 C17        28.6400   -2.5449   -6.0519 C.3       12 UNK        -0.0967 
     18 CA         27.7470   -1.8415   -7.0932 C.3       5 UNK         0.0660 
     19 N          26.3325   -2.1537   -6.9024 N.am      5 UNK        -0.4015 
     20 C          25.3910   -2.0165   -7.8441 C.2       4 UNK         0.4946 
     21 O          25.6226   -1.7040   -9.0125 O.2       4 UNK        -0.5353 
     22 CA         23.9361   -2.2404   -7.3959 C.3       4 UNK         0.0277 
     23 CB         23.5604   -3.7273   -7.5027 C.3       4 UNK        -0.1981 
     24 N          23.6709   -1.7636   -6.0338 N.am      4 UNK        -0.4209 
     25 C          23.7550   -0.4812   -5.6503 C.2       3 UNK         0.4942 
     26 O          24.0547    0.4414   -6.4061 O.2       3 UNK        -0.5208 
     27 CA         23.4929   -0.1755   -4.1678 C.3       3 UNK         0.0250 
     28 CB         21.9892    0.0256   -3.9208 C.3       3 UNK        -0.1990 
     29 N          24.0113   -1.1847   -3.2396 N.am      3 UNK        -0.4232 
     30 C          25.2939   -1.5588   -3.1229 C.2       2 UNK         0.4993 
     31 O          26.2018   -1.1755   -3.8661 O.2       2 UNK        -0.5286 
     32 CA         25.5963   -2.5765   -2.0083 C.3       2 UNK         0.0209 
     33 CB         26.0137   -3.9218   -2.6234 C.3       2 UNK        -0.1931 
     34 N          26.6096   -2.1491   -1.0327 N.am      2 UNK        -0.4546 
     35 C          26.6440   -0.9827   -0.3649 C.2       1 UNK         0.5154 
     36 O          25.9111   -0.0225   -0.6067 O.2       1 UNK        -0.5181 
     37 C          27.9735   -0.3209   -7.0345 C.2       5 UNK         0.5014 
     38 O          28.6605    0.2184   -7.9032 O.2       5 UNK        -0.5248 
     39 N          27.3973    0.3427   -6.0188 N.am      6 UNK        -0.4434 
     40 CA         27.5389    1.7817   -5.7730 C.3       6 UNK         0.0363 
     41 CB         26.8452    2.1559   -4.4553 C.3       6 UNK        -0.1936 
     42 C          27.0259    2.6628   -6.9248 C.2       6 UNK         0.5081 
     43 O          27.6230    3.7049   -7.1894 O.2       6 UNK        -0.5248 
     44 N          25.9777    2.2116   -7.6282 N.am      7 UNK        -0.4718 
     45 CA         25.4435    2.8405   -8.8414 C.3       7 UNK         0.0273 
     46 CB         24.1582    2.1116   -9.2647 C.3       7 UNK        -0.1935 
     47 C          26.4418    2.8872  -10.0146 C.2       7 UNK         0.5018 
     48 O          26.3634    3.8066  -10.8301 O.2       7 UNK        -0.5186 
     49 N          27.3655    1.9176  -10.0714 N.am      8 UNK        -0.4240 
     50 CA         28.4670    1.8670  -11.0367 C.3       8 UNK         0.0235 
     51 CB         28.7025    0.4018  -11.4396 C.3       8 UNK        -0.2000 
     52 C          29.7609    2.4965  -10.4852 C.2       8 UNK         0.4941 
     53 O          30.7319    2.6160  -11.2347 O.2       8 UNK        -0.5273 
     54 N          29.7658    2.8726   -9.1970 N.am      9 UNK        -0.4262 
     55 CA         30.8478    3.4529   -8.3935 C.3       9 UNK         0.0264 
     56 CB         31.2852    4.8271   -8.9374 C.3       9 UNK        -0.1955 
     57 C          32.0492    2.5161   -8.1889 C.2       9 UNK         0.5031 
     58 O          32.3869    2.2002   -7.0471 O.2       9 UNK        -0.5390 
     59 N          32.6731    2.0816   -9.2879 N.am      10 UNK        -0.4204 
     60 CA         33.8750    1.2484   -9.3230 C.3       10 UNK         0.0237 
     61 CB         34.6225    1.5212  -10.6424 C.3       10 UNK        -0.1985 
     62 C          33.5563   -0.2446   -9.1148 C.2       10 UNK         0.4970 
     63 O          33.9112   -1.0675   -9.9611 O.2       10 UNK        -0.4914 
     64 N          32.8981   -0.5637   -7.9918 N.am      11 UNK        -0.4285 
     65 CA         32.5382   -1.9269   -7.5583 C.3       11 UNK         0.1007 
     66 C          31.5908   -2.6714   -8.5483 C.2       11 UNK         0.5703 
     67 N          30.6526   -1.9763   -9.1793 N.am      11 UNK        -0.7361 
     68 O          31.6944   -3.8794   -8.7488 O.2       11 UNK        -0.4986 
     69 C69        33.7852   -2.7652   -7.1498 C.3       12 UNK        -0.0947 
     70 S70        34.6733   -2.0339   -5.7331 S.3       12 UNK        -0.2240 
     71 C71        34.2498   -3.1893   -4.3900 C.3       12 UNK         0.0194 
     72 H72        28.0147   -4.4032    2.7628 H         1 UNK         0.0906 
     73 H73        26.3116   -4.8263    2.5762 H         1 UNK         0.0906 
     74 H74        26.8596   -3.9879    4.0304 H         1 UNK         0.0906 
     75 H75        28.5930   -2.6280    1.5178 H         1 UNK         0.3140 
     76 H76        27.1428   -0.1776    1.5239 H         1 UNK         0.1085 
     77 H77        29.4602    0.0759    1.3871 H         1 UNK         0.0836 
     78 H78        28.9162    0.5221   -0.1959 H         1 UNK         0.0836 
     79 H79        29.5474   -0.5341   -2.2757 H         1 UNK         0.0731 
     80 H80        31.1782   -0.1044   -1.8045 H         1 UNK         0.0731 
     81 H81        33.0380   -1.3761   -2.7528 H         1 UNK         0.1312 
     82 H82        32.1938   -4.8080   -5.1939 H         1 UNK         0.1406 
     83 H83        29.0566   -2.9341   -2.9530 H         1 UNK         0.1631 
     84 H84        28.6794   -5.1028   -4.0386 H         1 UNK         0.0717 
     85 H85        29.9544   -5.9123   -4.9022 H         1 UNK         0.0717 
     86 H86        28.2390   -2.3712   -5.0541 H         1 UNK         0.0934 
     87 H87        29.6466   -2.1230   -6.0593 H         1 UNK         0.0934 
     88 H88        28.0464   -2.1777   -8.0880 H         1 UNK         0.0739 
     89 H89        26.0468   -2.3809   -5.9609 H         1 UNK         0.3093 
     90 H90        23.2945   -1.6749   -8.0754 H         1 UNK         0.0818 
     91 H91        23.7300   -4.0995   -8.5141 H         1 UNK         0.0819 
     92 H92        24.1513   -4.3453   -6.8253 H         1 UNK         0.0819 
     93 H93        22.5069   -3.8885   -7.2734 H         1 UNK         0.0819 
     94 H94        23.4083   -2.4544   -5.3460 H         1 UNK         0.3041 
     95 H95        23.9961    0.7626   -3.9324 H         1 UNK         0.0784 
     96 H96        21.5835    0.7891   -4.5865 H         1 UNK         0.0793 
     97 H97        21.4230   -0.8907   -4.0929 H         1 UNK         0.0793 
     98 H98        21.7947    0.3548   -2.8998 H         1 UNK         0.0793 
     99 H99        23.3402   -1.5672   -2.5889 H         1 UNK         0.3024 
    100 H100       24.6812   -2.7430   -1.4362 H         1 UNK         0.1171 
    101 H101       26.9147   -3.8227   -3.2263 H         1 UNK         0.0786 
    102 H102       26.1988   -4.6753   -1.8576 H         1 UNK         0.0786 
    103 H103       25.2318   -4.3122   -3.2763 H         1 UNK         0.0786 
    104 H104       27.2673   -2.8556   -0.7377 H         1 UNK         0.2977 
    105 H105       26.8759   -0.1845   -5.3208 H         1 UNK         0.3127 
    106 H106       28.6068    1.9813   -5.6612 H         1 UNK         0.0770 
    107 H107       25.7647    2.0437   -4.5290 H         1 UNK         0.0814 
    108 H108       27.0451    3.1957   -4.1937 H         1 UNK         0.0814 
    109 H109       27.1940    1.5384   -3.6269 H         1 UNK         0.0814 
    110 H110       25.4844    1.3893   -7.2880 H         1 UNK         0.2983 
    111 H111       25.1879    3.8727   -8.5930 H         1 UNK         0.0947 
    112 H112       24.3434    1.0557   -9.4682 H         1 UNK         0.0806 
    113 H113       23.7357    2.5517  -10.1690 H         1 UNK         0.0806 
    114 H114       23.3948    2.1729   -8.4889 H         1 UNK         0.0806 
    115 H115       27.3799    1.2144   -9.3411 H         1 UNK         0.3000 
    116 H116       28.1983    2.4245  -11.9365 H         1 UNK         0.0850 
    117 H117       29.5186    0.3158  -12.1584 H         1 UNK         0.0810 
    118 H118       27.8149   -0.0267  -11.9053 H         1 UNK         0.0810 
    119 H119       28.9569   -0.2160  -10.5794 H         1 UNK         0.0810 
    120 H120       28.9099    2.7208   -8.6781 H         1 UNK         0.3040 
    121 H121       30.4164    3.6209   -7.4053 H         1 UNK         0.0766 
    122 H122       31.7154    4.7592   -9.9369 H         1 UNK         0.0812 
    123 H123       32.0388    5.2786   -8.2909 H         1 UNK         0.0812 
    124 H124       30.4428    5.5174   -8.9832 H         1 UNK         0.0812 
    125 H125       32.2425    2.3180  -10.1803 H         1 UNK         0.3205 
    126 H126       34.5328    1.5487   -8.5044 H         1 UNK         0.0754 
    127 H127       35.5516    0.9518  -10.6927 H         1 UNK         0.0769 
    128 H128       34.8859    2.5749  -10.7377 H         1 UNK         0.0769 
    129 H129       34.0213    1.2465  -11.5103 H         1 UNK         0.0769 
    130 H130       32.6388    0.1929   -7.3679 H         1 UNK         0.2981 
    131 H131       31.9372   -1.7983   -6.6582 H         1 UNK         0.0541 
    132 H132       30.0483   -2.4546   -9.8268 H         1 UNK         0.3459 
    133 H133       30.5232   -0.9939   -8.9925 H         1 UNK         0.3459 
    134 H134       34.4809   -2.8537   -7.9852 H         1 UNK         0.0612 
    135 H135       33.5044   -3.7872   -6.8943 H         1 UNK         0.0612 
    136 H136       34.8671   -2.9551   -3.5215 H         1 UNK         0.0624 
    137 H137       34.5171   -4.2051   -4.6854 H         1 UNK         0.0624 
@<TRIPOS>BOND
     1    1    2 1    
     2    1   72 1    
     3    1   73 1    
     4    1   74 1    
     5    2    3 2    
     6    2    4 am   BACKBONE|DICT|INTERRES
     7    4    5 1    
     8    4   75 1    
     9    5    6 1    
    10    5   35 1    
    11    5   76 1    
    12    6    7 1    
    13    6   77 1    
    14    6   78 1    
    15    7    8 1    
    16    8    9 1    
    17    8   79 1    
    18    8   80 1    
    19    9   10 ar   
    20    9   14 ar   
    21   10   11 ar   
    22   10   81 1    
    23   11   12 ar   
    24   11   71 1    
    25   12   13 ar   
    26   12   82 1    
    27   13   14 ar   
    28   13   15 1    
    29   14   83 1    
    30   15   16 1    
    31   15   84 1    
    32   15   85 1    
    33   16   17 1    
    34   17   18 1    
    35   17   86 1    
    36   17   87 1    
    37   18   19 1    
    38   18   37 1    
    39   18   88 1    
    40   19   20 am   BACKBONE|DICT|INTERRES
    41   19   89 1    
    42   20   21 2    
    43   20   22 1    
    44   22   23 1    
    45   22   24 1    
    46   22   90 1    
    47   23   91 1    
    48   23   92 1    
    49   23   93 1    
    50   24   25 am   BACKBONE|DICT|INTERRES
    51   24   94 1    
    52   25   26 2    
    53   25   27 1    
    54   27   28 1    
    55   27   29 1    
    56   27   95 1    
    57   28   96 1    
    58   28   97 1    
    59   28   98 1    
    60   29   30 am   BACKBONE|DICT|INTERRES
    61   29   99 1    
    62   30   31 2    
    63   30   32 1    
    64   32   33 1    
    65   32   34 1    
    66   32  100 1    
    67   33  101 1    
    68   33  102 1    
    69   33  103 1    
    70   34   35 am   BACKBONE|DICT|INTERRES
    71   34  104 1    
    72   35   36 2    
    73   37   38 2    
    74   37   39 am   BACKBONE|DICT|INTERRES
    75   39   40 1    
    76   39  105 1    
    77   40   41 1    
    78   40   42 1    
    79   40  106 1    
    80   41  107 1    
    81   41  108 1    
    82   41  109 1    
    83   42   43 2    
    84   42   44 am   BACKBONE|DICT|INTERRES
    85   44   45 1    
    86   44  110 1    
    87   45   46 1    
    88   45   47 1    
    89   45  111 1    
    90   46  112 1    
    91   46  113 1    
    92   46  114 1    
    93   47   48 2    
    94   47   49 am   BACKBONE|DICT|INTERRES
    95   49   50 1    
    96   49  115 1    
    97   50   51 1    
    98   50   52 1    
    99   50  116 1    
   100   51  117 1    
   101   51  118 1    
   102   51  119 1    
   103   52   53 2    
   104   52   54 am   BACKBONE|DICT|INTERRES
   105   54   55 1    
   106   54  120 1    
   107   55   56 1    
   108   55   57 1    
   109   55  121 1    
   110   56  122 1    
   111   56  123 1    
   112   56  124 1    
   113   57   58 2    
   114   57   59 am   BACKBONE|DICT|INTERRES
   115   59   60 1    
   116   59  125 1    
   117   60   61 1    
   118   60   62 1    
   119   60  126 1    
   120   61  127 1    
   121   61  128 1    
   122   61  129 1    
   123   62   63 2    
   124   62   64 am   BACKBONE|DICT|INTERRES
   125   64   65 1    
   126   64  130 1    
   127   65   66 1    
   128   65   69 1    
   129   65  131 1    
   130   66   67 am   BACKBONE|DICT|INTERRES
   131   66   68 2    
   132   67  132 1    
   133   67  133 1    
   134   69   70 1    
   135   69  134 1    
   136   69  135 1    
   137   70   71 1    
   138   71  136 1    
   139   71  137 1    
@<TRIPOS>SUBSTRUCTURE
     1 UNK         1 GROUP             0       ****    0 ROOT    
