@<TRIPOS>MOLECULE
3R137
137   139    1
SMALL
USER_CHARGES


@<TRIPOS>ATOM
      1 CA         28.3853   -0.7126    3.1206 C.3       0 UNK        -0.2020 
      2 C          28.1298   -1.7642    2.0506 C.2       0 UNK         0.4855 
      3 O          27.4155   -2.7329    2.3126 O.2       0 UNK        -0.5197 
      4 N          28.7134   -1.5730    0.8584 N.am      1 UNK        -0.4892 
      5 CA         28.6022   -2.4291   -0.3350 C.3       1 UNK         0.0835 
      6 C6         29.1269   -3.8829   -0.1038 C.3       12 UNK        -0.0855 
      7 S7         30.8691   -3.9348    0.4658 S.3       12 UNK        -0.2931 
      8 C8         31.7970   -4.3535   -1.0512 C.3       12 UNK         0.0378 
      9 C9         31.6693   -3.2519   -2.0910 C.ar      12 UNK        -0.0802 
     10 C10        32.5333   -2.1511   -2.0799 C.ar      12 UNK        -0.0944 
     11 C11        32.3370   -1.0864   -2.9675 C.ar      12 UNK        -0.0787 
     12 C12        31.2333   -1.1112   -3.8267 C.ar      12 UNK        -0.0862 
     13 C13        30.4062   -2.2344   -3.8861 C.ar      12 UNK        -0.0733 
     14 C14        30.6468   -3.3143   -3.0388 C.ar      12 UNK        -0.0832 
     15 C15        29.2213   -2.2662   -4.8275 C.3       12 UNK         0.0240 
     16 S16        29.6843   -2.7772   -6.5076 S.3       12 UNK        -0.2522 
     17 C17        28.0232   -3.0324   -7.2277 C.3       12 UNK        -0.0967 
     18 CA         27.2619   -1.8248   -7.8655 C.3       5 UNK         0.0660 
     19 N          25.8382   -1.8605   -7.5171 N.am      5 UNK        -0.4015 
     20 C          24.8645   -1.2465   -8.2022 C.2       4 UNK         0.4946 
     21 O          25.0517   -0.6038   -9.2350 O.2       4 UNK        -0.5353 
     22 CA         23.4461   -1.3441   -7.6148 C.3       4 UNK         0.0277 
     23 CB         22.7723   -2.6583   -8.0410 C.3       4 UNK        -0.1981 
     24 N          23.4203   -1.2270   -6.1525 N.am      4 UNK        -0.4209 
     25 C          23.7474   -0.1113   -5.4849 C.2       3 UNK         0.4942 
     26 O          24.0998    0.9308   -6.0334 O.2       3 UNK        -0.5208 
     27 CA         23.7041   -0.1651   -3.9490 C.3       3 UNK         0.0250 
     28 CB         22.2907    0.1620   -3.4412 C.3       3 UNK        -0.1990 
     29 N          24.1545   -1.4335   -3.3654 N.am      3 UNK        -0.4232 
     30 C          25.3693   -1.9729   -3.5360 C.2       2 UNK         0.4993 
     31 O          26.2159   -1.5260   -4.3141 O.2       2 UNK        -0.5286 
     32 CA         25.6699   -3.2540   -2.7365 C.3       2 UNK         0.0209 
     33 CB         25.6848   -4.4777   -3.6674 C.3       2 UNK        -0.1931 
     34 N          26.9435   -3.1811   -2.0106 N.am      2 UNK        -0.4546 
     35 C          27.1844   -2.3713   -0.9675 C.2       1 UNK         0.5154 
     36 O          26.3371   -1.5884   -0.5274 O.2       1 UNK        -0.5181 
     37 C          27.8417   -0.4156   -7.6060 C.2       5 UNK         0.5014 
     38 O          28.5989    0.0915   -8.4362 O.2       5 UNK        -0.5248 
     39 N          27.4213    0.2166   -6.4985 N.am      6 UNK        -0.4434 
     40 CA         27.7860    1.5878   -6.1420 C.3       6 UNK         0.0363 
     41 CB         27.3272    1.8923   -4.7078 C.3       6 UNK        -0.1936 
     42 C          27.2282    2.6185   -7.1381 C.2       6 UNK         0.5081 
     43 O          27.9630    3.5157   -7.5484 O.2       6 UNK        -0.5248 
     44 N          25.9656    2.4466   -7.5575 N.am      7 UNK        -0.4718 
     45 CA         25.3092    3.2507   -8.5954 C.3       7 UNK         0.0273 
     46 CB         23.8182    2.8858   -8.6659 C.3       7 UNK        -0.1935 
     47 C          25.9663    3.1082   -9.9799 C.2       7 UNK         0.5018 
     48 O          26.0254    4.0877  -10.7236 O.2       7 UNK        -0.5186 
     49 N          26.4841    1.9097  -10.2834 N.am      8 UNK        -0.4240 
     50 CA         27.2918    1.6204  -11.4721 C.3       8 UNK         0.0235 
     51 CB         27.2691    0.1047  -11.7350 C.3       8 UNK        -0.2000 
     52 C          28.7439    2.1357  -11.3762 C.2       8 UNK         0.4941 
     53 O          29.4713    2.0315  -12.3649 O.2       8 UNK        -0.5273 
     54 N          29.1434    2.6682  -10.2097 N.am      9 UNK        -0.4262 
     55 CA         30.4729    3.1818   -9.8617 C.3       9 UNK         0.0264 
     56 CB         30.8336    4.4172  -10.7148 C.3       9 UNK        -0.1955 
     57 C          31.5685    2.0978   -9.8673 C.2       9 UNK         0.5031 
     58 O          32.7206    2.3950  -10.1923 O.2       9 UNK        -0.5390 
     59 N          31.1996    0.8677   -9.4923 N.am      10 UNK        -0.4204 
     60 CA         32.1102   -0.2594   -9.3062 C.3       10 UNK         0.0237 
     61 CB         31.4575   -1.5125   -9.9164 C.3       10 UNK        -0.1985 
     62 C          32.3724   -0.4692   -7.8077 C.2       10 UNK         0.4970 
     63 O          31.5990    0.0157   -6.9803 O.2       10 UNK        -0.4914 
     64 N          33.4316   -1.2261   -7.5014 N.am      11 UNK        -0.4285 
     65 CA         33.7153   -1.8163   -6.1864 C.3       11 UNK         0.1007 
     66 C          34.2990   -3.2393   -6.3685 C.2       11 UNK         0.5703 
     67 N          34.1638   -4.0956   -5.3649 N.am      11 UNK        -0.7361 
     68 O          34.8902   -3.5681   -7.3969 O.2       11 UNK        -0.4986 
     69 C69        34.6363   -0.9437   -5.2818 C.3       12 UNK        -0.0947 
     70 S70        33.8471    0.5797   -4.6586 S.3       12 UNK        -0.2240 
     71 C71        33.3065    0.0927   -2.9796 C.3       12 UNK         0.0194 
     72 H72        28.8514   -1.1707    3.9926 H         1 UNK         0.0906 
     73 H73        27.4445   -0.2612    3.4347 H         1 UNK         0.0906 
     74 H74        29.0407    0.0826    2.7655 H         1 UNK         0.0906 
     75 H75        29.2680   -0.7394    0.7234 H         1 UNK         0.3140 
     76 H76        29.2510   -1.9572   -1.0732 H         1 UNK         0.1085 
     77 H77        29.0417   -4.4934   -1.0016 H         1 UNK         0.0836 
     78 H78        28.5151   -4.3936    0.6409 H         1 UNK         0.0836 
     79 H79        32.8473   -4.5018   -0.7959 H         1 UNK         0.0731 
     80 H80        31.4418   -5.3056   -1.4488 H         1 UNK         0.0731 
     81 H81        33.3455   -2.1166   -1.3665 H         1 UNK         0.1312 
     82 H82        31.0470   -0.2767   -4.4888 H         1 UNK         0.1406 
     83 H83        30.0034   -4.1817   -3.0820 H         1 UNK         0.1631 
     84 H84        28.7709   -1.2765   -4.8508 H         1 UNK         0.0717 
     85 H85        28.4614   -2.9440   -4.4410 H         1 UNK         0.0717 
     86 H86        28.1301   -3.8098   -7.9859 H         1 UNK         0.0934 
     87 H87        27.4126   -3.5021   -6.4560 H         1 UNK         0.0934 
     88 H88        27.3229   -1.9610   -8.9478 H         1 UNK         0.0739 
     89 H89        25.5981   -2.3114   -6.6464 H         1 UNK         0.3093 
     90 H90        22.8647   -0.5160   -8.0264 H         1 UNK         0.0818 
     91 H91        22.7664   -2.7577   -9.1275 H         1 UNK         0.0819 
     92 H92        23.2877   -3.5305   -7.6370 H         1 UNK         0.0819 
     93 H93        21.7345   -2.6975   -7.7094 H         1 UNK         0.0819 
     94 H94        23.1310   -2.0382   -5.6254 H         1 UNK         0.3041 
     95 H95        24.3798    0.6104   -3.5828 H         1 UNK         0.0784 
     96 H96        21.9413    1.1133   -3.8457 H         1 UNK         0.0793 
     97 H97        21.5681   -0.6011   -3.7330 H         1 UNK         0.0793 
     98 H98        22.2689    0.2486   -2.3547 H         1 UNK         0.0793 
     99 H99        23.5154   -1.8766   -2.7209 H         1 UNK         0.3024 
    100 H100       24.8784   -3.3996   -1.9975 H         1 UNK         0.1171 
    101 H101       26.4861   -4.4201   -4.4039 H         1 UNK         0.0786 
    102 H102       25.8149   -5.4021   -3.1042 H         1 UNK         0.0786 
    103 H103       24.7452   -4.5654   -4.2147 H         1 UNK         0.0786 
    104 H104       27.6798   -3.7824   -2.3442 H         1 UNK         0.2977 
    105 H105       26.8220   -0.2826   -5.8486 H         1 UNK         0.3127 
    106 H106       28.8763    1.6536   -6.1705 H         1 UNK         0.0770 
    107 H107       27.6499    2.8878   -4.4007 H         1 UNK         0.0814 
    108 H108       26.2420    1.8589   -4.6142 H         1 UNK         0.0814 
    109 H109       27.7467    1.1799   -3.9968 H         1 UNK         0.0814 
    110 H110       25.3970    1.7275   -7.1140 H         1 UNK         0.2983 
    111 H111       25.3913    4.2994   -8.3017 H         1 UNK         0.0947 
    112 H112       23.6724    1.8365   -8.9247 H         1 UNK         0.0806 
    113 H113       23.3037    3.4838   -9.4192 H         1 UNK         0.0806 
    114 H114       23.3207    3.0668   -7.7129 H         1 UNK         0.0806 
    115 H115       26.3356    1.1423   -9.6376 H         1 UNK         0.3000 
    116 H116       26.8315    2.1183  -12.3281 H         1 UNK         0.0850 
    117 H117       27.7959   -0.1410  -12.6580 H         1 UNK         0.0810 
    118 H118       26.2489   -0.2661  -11.8362 H         1 UNK         0.0810 
    119 H119       27.7491   -0.4513  -10.9299 H         1 UNK         0.0810 
    120 H120       28.4723    2.6964   -9.4504 H         1 UNK         0.3040 
    121 H121       30.3985    3.5154   -8.8258 H         1 UNK         0.0766 
    122 H122       31.7469    4.8897  -10.3514 H         1 UNK         0.0812 
    123 H123       30.0449    5.1686  -10.6772 H         1 UNK         0.0812 
    124 H124       30.9990    4.1545  -11.7599 H         1 UNK         0.0812 
    125 H125       30.2492    0.7165   -9.1558 H         1 UNK         0.3205 
    126 H126       33.0619   -0.0747   -9.8088 H         1 UNK         0.0754 
    127 H127       32.1094   -2.3823   -9.8270 H         1 UNK         0.0769 
    128 H128       31.2475   -1.3717  -10.9768 H         1 UNK         0.0769 
    129 H129       30.5170   -1.7575   -9.4204 H         1 UNK         0.0769 
    130 H130       33.9976   -1.6098   -8.2466 H         1 UNK         0.2981 
    131 H131       32.7604   -1.9700   -5.6910 H         1 UNK         0.0541 
    132 H132       34.5436   -5.0244   -5.4584 H         1 UNK         0.3459 
    133 H133       33.6780   -3.8327   -4.5215 H         1 UNK         0.3459 
    134 H134       35.5368   -0.6606   -5.8289 H         1 UNK         0.0612 
    135 H135       34.9812   -1.5124   -4.4162 H         1 UNK         0.0612 
    136 H136       32.8219    0.9480   -2.5074 H         1 UNK         0.0624 
    137 H137       34.1922   -0.1304   -2.3829 H         1 UNK         0.0624 
@<TRIPOS>BOND
     1    1    2 1    
     2    1   72 1    
     3    1   73 1    
     4    1   74 1    
     5    2    3 2    
     6    2    4 am   BACKBONE|DICT|INTERRES
     7    4    5 1    
     8    4   75 1    
     9    5    6 1    
    10    5   35 1    
    11    5   76 1    
    12    6    7 1    
    13    6   77 1    
    14    6   78 1    
    15    7    8 1    
    16    8    9 1    
    17    8   79 1    
    18    8   80 1    
    19    9   10 ar   
    20    9   14 ar   
    21   10   11 ar   
    22   10   81 1    
    23   11   12 ar   
    24   11   71 1    
    25   12   13 ar   
    26   12   82 1    
    27   13   14 ar   
    28   13   15 1    
    29   14   83 1    
    30   15   16 1    
    31   15   84 1    
    32   15   85 1    
    33   16   17 1    
    34   17   18 1    
    35   17   86 1    
    36   17   87 1    
    37   18   19 1    
    38   18   37 1    
    39   18   88 1    
    40   19   20 am   BACKBONE|DICT|INTERRES
    41   19   89 1    
    42   20   21 2    
    43   20   22 1    
    44   22   23 1    
    45   22   24 1    
    46   22   90 1    
    47   23   91 1    
    48   23   92 1    
    49   23   93 1    
    50   24   25 am   BACKBONE|DICT|INTERRES
    51   24   94 1    
    52   25   26 2    
    53   25   27 1    
    54   27   28 1    
    55   27   29 1    
    56   27   95 1    
    57   28   96 1    
    58   28   97 1    
    59   28   98 1    
    60   29   30 am   BACKBONE|DICT|INTERRES
    61   29   99 1    
    62   30   31 2    
    63   30   32 1    
    64   32   33 1    
    65   32   34 1    
    66   32  100 1    
    67   33  101 1    
    68   33  102 1    
    69   33  103 1    
    70   34   35 am   BACKBONE|DICT|INTERRES
    71   34  104 1    
    72   35   36 2    
    73   37   38 2    
    74   37   39 am   BACKBONE|DICT|INTERRES
    75   39   40 1    
    76   39  105 1    
    77   40   41 1    
    78   40   42 1    
    79   40  106 1    
    80   41  107 1    
    81   41  108 1    
    82   41  109 1    
    83   42   43 2    
    84   42   44 am   BACKBONE|DICT|INTERRES
    85   44   45 1    
    86   44  110 1    
    87   45   46 1    
    88   45   47 1    
    89   45  111 1    
    90   46  112 1    
    91   46  113 1    
    92   46  114 1    
    93   47   48 2    
    94   47   49 am   BACKBONE|DICT|INTERRES
    95   49   50 1    
    96   49  115 1    
    97   50   51 1    
    98   50   52 1    
    99   50  116 1    
   100   51  117 1    
   101   51  118 1    
   102   51  119 1    
   103   52   53 2    
   104   52   54 am   BACKBONE|DICT|INTERRES
   105   54   55 1    
   106   54  120 1    
   107   55   56 1    
   108   55   57 1    
   109   55  121 1    
   110   56  122 1    
   111   56  123 1    
   112   56  124 1    
   113   57   58 2    
   114   57   59 am   BACKBONE|DICT|INTERRES
   115   59   60 1    
   116   59  125 1    
   117   60   61 1    
   118   60   62 1    
   119   60  126 1    
   120   61  127 1    
   121   61  128 1    
   122   61  129 1    
   123   62   63 2    
   124   62   64 am   BACKBONE|DICT|INTERRES
   125   64   65 1    
   126   64  130 1    
   127   65   66 1    
   128   65   69 1    
   129   65  131 1    
   130   66   67 am   BACKBONE|DICT|INTERRES
   131   66   68 2    
   132   67  132 1    
   133   67  133 1    
   134   69   70 1    
   135   69  134 1    
   136   69  135 1    
   137   70   71 1    
   138   71  136 1    
   139   71  137 1    
@<TRIPOS>SUBSTRUCTURE
     1 UNK         1 GROUP             0       ****    0 ROOT    
