@<TRIPOS>MOLECULE
3R137
137   139    1
SMALL
USER_CHARGES


@<TRIPOS>ATOM
      1 CA         27.7387   -1.4934    3.6048 C.3       0 UNK        -0.2020 
      2 C          27.9393   -0.9176    2.2111 C.2       0 UNK         0.4855 
      3 O          28.2807    0.2576    2.0773 O.2       0 UNK        -0.5197 
      4 N          27.7301   -1.7360    1.1715 N.am      1 UNK        -0.4892 
      5 CA         27.8866   -1.3564   -0.2400 C.3       1 UNK         0.0835 
      6 C6         27.9433   -2.5964   -1.1683 C.3       12 UNK        -0.0855 
      7 S7         29.3242   -3.7184   -0.7736 S.3       12 UNK        -0.2931 
      8 C8         30.6402   -3.0634   -1.8604 C.3       12 UNK         0.0378 
      9 C9         30.4937   -3.3426   -3.3598 C.ar      12 UNK        -0.0802 
     10 C10        31.3492   -2.6689   -4.2367 C.ar      12 UNK        -0.0944 
     11 C11        31.3139   -2.9095   -5.6155 C.ar      12 UNK        -0.0787 
     12 C12        30.3786   -3.8183   -6.1223 C.ar      12 UNK        -0.0862 
     13 C13        29.5028   -4.4914   -5.2645 C.ar      12 UNK        -0.0733 
     14 C14        29.5699   -4.2554   -3.8872 C.ar      12 UNK        -0.0832 
     15 C15        28.5080   -5.5073   -5.8102 C.3       12 UNK         0.0240 
     16 S16        26.8916   -4.7571   -6.1933 S.3       12 UNK        -0.2522 
     17 C17        27.0426   -4.3779   -7.9783 C.3       12 UNK        -0.0967 
     18 CA         26.6574   -2.9276   -8.3665 C.3       5 UNK         0.0660 
     19 N          25.3282   -2.5417   -7.8833 N.am      5 UNK        -0.4015 
     20 C          24.6875   -1.4144   -8.2260 C.2       4 UNK         0.4946 
     21 O          25.1226   -0.5979   -9.0365 O.2       4 UNK        -0.5353 
     22 CA         23.3531   -1.1234   -7.5211 C.3       4 UNK         0.0277 
     23 CB         22.1840   -1.7347   -8.3096 C.3       4 UNK        -0.1981 
     24 N          23.3064   -1.5870   -6.1312 N.am      4 UNK        -0.4209 
     25 C          24.1054   -1.1476   -5.1495 C.2       3 UNK         0.4942 
     26 O          25.0095   -0.3223   -5.3082 O.2       3 UNK        -0.5208 
     27 CA         23.8804   -1.7802   -3.7742 C.3       3 UNK         0.0250 
     28 CB         24.6885   -3.0832   -3.6395 C.3       3 UNK        -0.1990 
     29 N          24.3003   -0.8513   -2.7301 N.am      3 UNK        -0.4232 
     30 C          23.6816   -0.6749   -1.5572 C.2       2 UNK         0.4993 
     31 O          22.6401   -1.2522   -1.2378 O.2       2 UNK        -0.5286 
     32 CA         24.3918    0.2442   -0.5464 C.3       2 UNK         0.0209 
     33 CB         23.5125    0.5882    0.6709 C.3       2 UNK        -0.1931 
     34 N          25.6129   -0.4140   -0.0795 N.am      2 UNK        -0.4546 
     35 C          26.7813   -0.4009   -0.7347 C.2       1 UNK         0.5154 
     36 O          26.9849    0.2951   -1.7295 O.2       1 UNK        -0.5181 
     37 C          27.7417   -1.9140   -7.9589 C.2       5 UNK         0.5014 
     38 O          28.5549   -1.5310   -8.7998 O.2       5 UNK        -0.5248 
     39 N          27.7043   -1.4666   -6.6965 N.am      6 UNK        -0.4434 
     40 CA         28.6102   -0.4575   -6.1554 C.3       6 UNK         0.0363 
     41 CB         28.4717   -0.3924   -4.6304 C.3       6 UNK        -0.1936 
     42 C          28.3786    0.9172   -6.7875 C.2       6 UNK         0.5081 
     43 O          29.3486    1.5704   -7.1692 O.2       6 UNK        -0.5248 
     44 N          27.1032    1.3056   -6.9275 N.am      7 UNK        -0.4718 
     45 CA         26.6834    2.5474   -7.5806 C.3       7 UNK         0.0273 
     46 CB         25.1650    2.7226   -7.4218 C.3       7 UNK        -0.1935 
     47 C          27.0915    2.6183   -9.0631 C.2       7 UNK         0.5018 
     48 O          27.5191    3.6797   -9.5185 O.2       7 UNK        -0.5186 
     49 N          26.9641    1.4930   -9.7800 N.am      8 UNK        -0.4240 
     50 CA         27.3642    1.3538  -11.1789 C.3       8 UNK         0.0235 
     51 CB         26.7256    0.0901  -11.7791 C.3       8 UNK        -0.2000 
     52 C          28.8894    1.3307  -11.3631 C.2       8 UNK         0.4941 
     53 O          29.4008    2.0677  -12.2075 O.2       8 UNK        -0.5273 
     54 N          29.5846    0.4693  -10.6059 N.am      9 UNK        -0.4262 
     55 CA         31.0212    0.2330  -10.7652 C.3       9 UNK         0.0264 
     56 CB         31.3947   -1.1285  -10.1585 C.3       9 UNK        -0.1955 
     57 C          31.9021    1.3388  -10.1670 C.2       9 UNK         0.5031 
     58 O          32.9370    1.6499  -10.7585 O.2       9 UNK        -0.5390 
     59 N          31.5079    1.8790   -9.0012 N.am      10 UNK        -0.4204 
     60 CA         32.2572    2.8430   -8.1805 C.3       10 UNK         0.0237 
     61 CB         32.2824    4.2285   -8.8604 C.3       10 UNK        -0.1985 
     62 C          33.6616    2.3340   -7.7857 C.2       10 UNK         0.4970 
     63 O          34.6251    3.1031   -7.8077 O.2       10 UNK        -0.4914 
     64 N          33.7533    1.0336   -7.4726 N.am      11 UNK        -0.4285 
     65 CA         35.0031    0.3263   -7.1642 C.3       11 UNK         0.1007 
     66 C          35.6712    0.7664   -5.8286 C.2       11 UNK         0.5703 
     67 N          36.9579    0.4896   -5.6626 N.am      11 UNK        -0.7361 
     68 O          35.0377    1.3316   -4.9381 O.2       11 UNK        -0.4986 
     69 C69        34.8312   -1.2140   -7.3050 C.3       12 UNK        -0.0947 
     70 S70        33.9632   -2.0503   -5.9315 S.3       12 UNK        -0.2240 
     71 C71        32.2599   -2.1784   -6.5676 C.3       12 UNK         0.0194 
     72 H72        26.9647   -0.9369    4.1328 H         1 UNK         0.0906 
     73 H73        27.4424   -2.5419    3.5753 H         1 UNK         0.0906 
     74 H74        28.6628   -1.4189    4.1776 H         1 UNK         0.0906 
     75 H75        27.4850   -2.7024    1.3381 H         1 UNK         0.3140 
     76 H76        28.8295   -0.8136   -0.3381 H         1 UNK         0.1085 
     77 H77        27.0156   -3.1680   -1.0981 H         1 UNK         0.0836 
     78 H78        28.0249   -2.2974   -2.2135 H         1 UNK         0.0836 
     79 H79        31.5882   -3.4905   -1.5305 H         1 UNK         0.0731 
     80 H80        30.7181   -1.9872   -1.6981 H         1 UNK         0.0731 
     81 H81        32.0609   -1.9592   -3.8376 H         1 UNK         0.1312 
     82 H82        30.3318   -4.0043   -7.1866 H         1 UNK         0.1406 
     83 H83        28.9010   -4.7961   -3.2331 H         1 UNK         0.1631 
     84 H84        28.3510   -6.2935   -5.0701 H         1 UNK         0.0717 
     85 H85        28.9142   -6.0104   -6.6887 H         1 UNK         0.0717 
     86 H86        28.0505   -4.6056   -8.3301 H         1 UNK         0.0934 
     87 H87        26.3924   -5.0733   -8.5114 H         1 UNK         0.0934 
     88 H88        26.6084   -2.8936   -9.4573 H         1 UNK         0.0739 
     89 H89        24.9036   -3.1577   -7.2060 H         1 UNK         0.3093 
     90 H90        23.2229   -0.0395   -7.5077 H         1 UNK         0.0818 
     91 H91        21.2231   -1.4521   -7.8790 H         1 UNK         0.0819 
     92 H92        22.1874   -1.3859   -9.3434 H         1 UNK         0.0819 
     93 H93        22.2354   -2.8239   -8.3334 H         1 UNK         0.0819 
     94 H94        22.5985   -2.2729   -5.9093 H         1 UNK         0.3041 
     95 H95        22.8158   -2.0011   -3.6700 H         1 UNK         0.0784 
     96 H96        25.7594   -2.9079   -3.7537 H         1 UNK         0.0793 
     97 H97        24.5300   -3.5480   -2.6663 H         1 UNK         0.0793 
     98 H98        24.3933   -3.8118   -4.3955 H         1 UNK         0.0793 
     99 H99        25.1373   -0.3165   -2.9364 H         1 UNK         0.3024 
    100 H100       24.6414    1.1776   -1.0569 H         1 UNK         0.1171 
    101 H101       22.5891    1.0777    0.3582 H         1 UNK         0.0786 
    102 H102       24.0264    1.2699    1.3489 H         1 UNK         0.0786 
    103 H103       23.2351   -0.3013    1.2380 H         1 UNK         0.0786 
    104 H104       25.5231   -1.0308    0.7151 H         1 UNK         0.2977 
    105 H105       26.9807   -1.8090   -6.0816 H         1 UNK         0.3127 
    106 H106       29.6288   -0.7624   -6.3922 H         1 UNK         0.0770 
    107 H107       29.1833    0.3138   -4.2012 H         1 UNK         0.0814 
    108 H108       28.6678   -1.3635   -4.1828 H         1 UNK         0.0814 
    109 H109       27.4740   -0.0769   -4.3264 H         1 UNK         0.0814 
    110 H110       26.3725    0.7059   -6.5577 H         1 UNK         0.2983 
    111 H111       27.1792    3.3722   -7.0641 H         1 UNK         0.0947 
    112 H112       24.8367    3.6732   -7.8441 H         1 UNK         0.0806 
    113 H113       24.8708    2.7137   -6.3720 H         1 UNK         0.0806 
    114 H114       24.6130    1.9324   -7.9309 H         1 UNK         0.0806 
    115 H115       26.5271    0.6833   -9.3461 H         1 UNK         0.3000 
    116 H116       26.9775    2.2159  -11.7270 H         1 UNK         0.0850 
    117 H117       27.0108   -0.0349  -12.8245 H         1 UNK         0.0810 
    118 H118       25.6373    0.1434  -11.7438 H         1 UNK         0.0810 
    119 H119       27.0309   -0.8109  -11.2453 H         1 UNK         0.0810 
    120 H120       29.0947   -0.1271   -9.9412 H         1 UNK         0.3040 
    121 H121       31.2399    0.1855  -11.8345 H         1 UNK         0.0766 
    122 H122       32.4586   -1.3363  -10.2807 H         1 UNK         0.0812 
    123 H123       30.8472   -1.9398  -10.6385 H         1 UNK         0.0812 
    124 H124       31.1728   -1.1634   -9.0929 H         1 UNK         0.0812 
    125 H125       30.6279    1.5753   -8.5884 H         1 UNK         0.3205 
    126 H126       31.7030    2.9471   -7.2468 H         1 UNK         0.0754 
    127 H127       32.7280    4.9786   -8.2058 H         1 UNK         0.0769 
    128 H128       31.2748    4.5676   -9.1016 H         1 UNK         0.0769 
    129 H129       32.8619    4.2159   -9.7841 H         1 UNK         0.0769 
    130 H130       32.9105    0.4838   -7.4418 H         1 UNK         0.2981 
    131 H131       35.7002    0.6257   -7.9498 H         1 UNK         0.0541 
    132 H132       37.4083    0.7568   -4.8013 H         1 UNK         0.3459 
    133 H133       37.4873    0.0169   -6.3785 H         1 UNK         0.3459 
    134 H134       35.8163   -1.6769   -7.3814 H         1 UNK         0.0612 
    135 H135       34.3331   -1.4528   -8.2460 H         1 UNK         0.0612 
    136 H136       32.2906   -2.6882   -7.5317 H         1 UNK         0.0624 
    137 H137       31.8755   -1.1753   -6.7472 H         1 UNK         0.0624 
@<TRIPOS>BOND
     1    1    2 1    
     2    1   72 1    
     3    1   73 1    
     4    1   74 1    
     5    2    3 2    
     6    2    4 am   BACKBONE|DICT|INTERRES
     7    4    5 1    
     8    4   75 1    
     9    5    6 1    
    10    5   35 1    
    11    5   76 1    
    12    6    7 1    
    13    6   77 1    
    14    6   78 1    
    15    7    8 1    
    16    8    9 1    
    17    8   79 1    
    18    8   80 1    
    19    9   10 ar   
    20    9   14 ar   
    21   10   11 ar   
    22   10   81 1    
    23   11   12 ar   
    24   11   71 1    
    25   12   13 ar   
    26   12   82 1    
    27   13   14 ar   
    28   13   15 1    
    29   14   83 1    
    30   15   16 1    
    31   15   84 1    
    32   15   85 1    
    33   16   17 1    
    34   17   18 1    
    35   17   86 1    
    36   17   87 1    
    37   18   19 1    
    38   18   37 1    
    39   18   88 1    
    40   19   20 am   BACKBONE|DICT|INTERRES
    41   19   89 1    
    42   20   21 2    
    43   20   22 1    
    44   22   23 1    
    45   22   24 1    
    46   22   90 1    
    47   23   91 1    
    48   23   92 1    
    49   23   93 1    
    50   24   25 am   BACKBONE|DICT|INTERRES
    51   24   94 1    
    52   25   26 2    
    53   25   27 1    
    54   27   28 1    
    55   27   29 1    
    56   27   95 1    
    57   28   96 1    
    58   28   97 1    
    59   28   98 1    
    60   29   30 am   BACKBONE|DICT|INTERRES
    61   29   99 1    
    62   30   31 2    
    63   30   32 1    
    64   32   33 1    
    65   32   34 1    
    66   32  100 1    
    67   33  101 1    
    68   33  102 1    
    69   33  103 1    
    70   34   35 am   BACKBONE|DICT|INTERRES
    71   34  104 1    
    72   35   36 2    
    73   37   38 2    
    74   37   39 am   BACKBONE|DICT|INTERRES
    75   39   40 1    
    76   39  105 1    
    77   40   41 1    
    78   40   42 1    
    79   40  106 1    
    80   41  107 1    
    81   41  108 1    
    82   41  109 1    
    83   42   43 2    
    84   42   44 am   BACKBONE|DICT|INTERRES
    85   44   45 1    
    86   44  110 1    
    87   45   46 1    
    88   45   47 1    
    89   45  111 1    
    90   46  112 1    
    91   46  113 1    
    92   46  114 1    
    93   47   48 2    
    94   47   49 am   BACKBONE|DICT|INTERRES
    95   49   50 1    
    96   49  115 1    
    97   50   51 1    
    98   50   52 1    
    99   50  116 1    
   100   51  117 1    
   101   51  118 1    
   102   51  119 1    
   103   52   53 2    
   104   52   54 am   BACKBONE|DICT|INTERRES
   105   54   55 1    
   106   54  120 1    
   107   55   56 1    
   108   55   57 1    
   109   55  121 1    
   110   56  122 1    
   111   56  123 1    
   112   56  124 1    
   113   57   58 2    
   114   57   59 am   BACKBONE|DICT|INTERRES
   115   59   60 1    
   116   59  125 1    
   117   60   61 1    
   118   60   62 1    
   119   60  126 1    
   120   61  127 1    
   121   61  128 1    
   122   61  129 1    
   123   62   63 2    
   124   62   64 am   BACKBONE|DICT|INTERRES
   125   64   65 1    
   126   64  130 1    
   127   65   66 1    
   128   65   69 1    
   129   65  131 1    
   130   66   67 am   BACKBONE|DICT|INTERRES
   131   66   68 2    
   132   67  132 1    
   133   67  133 1    
   134   69   70 1    
   135   69  134 1    
   136   69  135 1    
   137   70   71 1    
   138   71  136 1    
   139   71  137 1    
@<TRIPOS>SUBSTRUCTURE
     1 UNK         1 GROUP             0       ****    0 ROOT    
