@<TRIPOS>MOLECULE
3R137
137   139    1
SMALL
USER_CHARGES


@<TRIPOS>ATOM
      1 CA         26.9289    0.7405    3.6354 C.3       0 UNK        -0.2020 
      2 C          27.3591    0.4398    2.2073 C.2       0 UNK         0.4855 
      3 O          28.1425    1.1956    1.6322 O.2       0 UNK        -0.5197 
      4 N          26.8513   -0.6542    1.6317 N.am      1 UNK        -0.4892 
      5 CA         27.0927   -1.0877    0.2563 C.3       1 UNK         0.0835 
      6 C6         28.5116   -1.6899    0.0479 C.3       12 UNK        -0.0855 
      7 S7         29.0469   -1.5692   -1.6919 S.3       12 UNK        -0.2931 
      8 C8         30.2666   -2.9123   -1.7947 C.3       12 UNK         0.0378 
      9 C9         30.4968   -3.3281   -3.2396 C.ar      12 UNK        -0.0802 
     10 C10        31.6637   -2.9625   -3.9189 C.ar      12 UNK        -0.0944 
     11 C11        31.8859   -3.4026   -5.2285 C.ar      12 UNK        -0.0787 
     12 C12        30.9160   -4.1842   -5.8679 C.ar      12 UNK        -0.0862 
     13 C13        29.7433   -4.5508   -5.1995 C.ar      12 UNK        -0.0733 
     14 C14        29.5460   -4.1229   -3.8845 C.ar      12 UNK        -0.0832 
     15 C15        28.7236   -5.4680   -5.8651 C.3       12 UNK         0.0240 
     16 S16        27.7631   -4.6473   -7.1767 S.3       12 UNK        -0.2522 
     17 C17        26.7238   -3.4730   -6.2381 C.3       12 UNK        -0.0967 
     18 CA         26.5213   -2.1331   -6.9876 C.3       5 UNK         0.0660 
     19 N          25.4018   -1.3431   -6.4465 N.am      5 UNK        -0.4015 
     20 C          24.9844   -0.1702   -6.9579 C.2       4 UNK         0.4946 
     21 O          25.5604    0.4032   -7.8827 O.2       4 UNK        -0.5353 
     22 CA         23.7163    0.4960   -6.3933 C.3       4 UNK         0.0277 
     23 CB         22.6685    0.6825   -7.5050 C.3       4 UNK        -0.1981 
     24 N          23.0956   -0.2274   -5.2852 N.am      4 UNK        -0.4209 
     25 C          23.4310   -0.0962   -3.9966 C.2       3 UNK         0.4942 
     26 O          24.3430    0.6288   -3.5962 O.2       3 UNK        -0.5208 
     27 CA         22.6249   -0.9232   -2.9741 C.3       3 UNK         0.0250 
     28 CB         21.3832   -1.6339   -3.5623 C.3       3 UNK        -0.1990 
     29 N          23.4769   -1.8880   -2.2741 N.am      3 UNK        -0.4232 
     30 C          24.2608   -2.8215   -2.8314 C.2       2 UNK         0.4993 
     31 O          24.3640   -2.9991   -4.0480 O.2       2 UNK        -0.5286 
     32 CA         25.1103   -3.6485   -1.8529 C.3       2 UNK         0.0209 
     33 CB         25.7928   -4.8510   -2.5302 C.3       2 UNK        -0.1931 
     34 N          26.1270   -2.7905   -1.2407 N.am      2 UNK        -0.4546 
     35 C          25.9351   -2.0175   -0.1649 C.2       1 UNK         0.5154 
     36 O          24.8773   -2.0070    0.4732 O.2       1 UNK        -0.5181 
     37 C          27.8376   -1.3364   -7.1009 C.2       5 UNK         0.5014 
     38 O          28.4317   -1.3085   -8.1791 O.2       5 UNK        -0.5248 
     39 N          28.2365   -0.6553   -6.0171 N.am      6 UNK        -0.4434 
     40 CA         29.4453    0.1716   -5.9867 C.3       6 UNK         0.0363 
     41 CB         29.7612    0.5976   -4.5465 C.3       6 UNK        -0.1936 
     42 C          29.3862    1.3990   -6.9086 C.2       6 UNK         0.5081 
     43 O          30.4320    1.8228   -7.3966 O.2       6 UNK        -0.5248 
     44 N          28.1852    1.9413   -7.1489 N.am      7 UNK        -0.4718 
     45 CA         27.9670    3.0375   -8.0935 C.3       7 UNK         0.0273 
     46 CB         26.6217    3.7232   -7.8028 C.3       7 UNK        -0.1935 
     47 C          28.0381    2.5442   -9.5465 C.2       7 UNK         0.5018 
     48 O          28.6963    3.1813  -10.3686 O.2       7 UNK        -0.5186 
     49 N          27.3853    1.4070   -9.8251 N.am      8 UNK        -0.4240 
     50 CA         27.3528    0.7533  -11.1345 C.3       8 UNK         0.0235 
     51 CB         26.3169   -0.3828  -11.1126 C.3       8 UNK        -0.2000 
     52 C          28.7279    0.2303  -11.5804 C.2       8 UNK         0.4941 
     53 O          29.1149    0.4522  -12.7284 O.2       8 UNK        -0.5273 
     54 N          29.4436   -0.4412  -10.6685 N.am      9 UNK        -0.4262 
     55 CA         30.7784   -0.9968  -10.9076 C.3       9 UNK         0.0264 
     56 CB         30.9894   -2.1993   -9.9736 C.3       9 UNK        -0.1955 
     57 C          31.9158    0.0319  -10.7527 C.2       9 UNK         0.5031 
     58 O          33.0487   -0.2867  -11.1176 O.2       9 UNK        -0.5390 
     59 N          31.6063    1.2293  -10.2293 N.am      10 UNK        -0.4204 
     60 CA         32.5176    2.3462   -9.9437 C.3       10 UNK         0.0237 
     61 CB         33.0935    2.9389  -11.2478 C.3       10 UNK        -0.1985 
     62 C          33.6005    1.9703   -8.9120 C.2       10 UNK         0.4970 
     63 O          34.7902    2.1979   -9.1421 O.2       10 UNK        -0.4914 
     64 N          33.1535    1.3919   -7.7927 N.am      11 UNK        -0.4285 
     65 CA         33.9902    0.9500   -6.6660 C.3       11 UNK         0.1007 
     66 C          34.3467    2.0871   -5.6665 C.2       11 UNK         0.5703 
     67 N          33.7391    3.2653   -5.7514 N.am      11 UNK        -0.7361 
     68 O          35.2013    1.8999   -4.8037 O.2       11 UNK        -0.4986 
     69 C69        33.3647   -0.2644   -5.9280 C.3       12 UNK        -0.0947 
     70 S70        33.0754   -1.6718   -7.0502 S.3       12 UNK        -0.2240 
     71 C71        33.2013   -3.0982   -5.9325 C.3       12 UNK         0.0194 
     72 H72        26.2390   -0.0102    4.0206 H         1 UNK         0.0906 
     73 H73        27.7988    0.7691    4.2910 H         1 UNK         0.0906 
     74 H74        26.4348    1.7107    3.6822 H         1 UNK         0.0906 
     75 H75        26.1496   -1.2068    2.1106 H         1 UNK         0.3140 
     76 H76        26.9969   -0.1987   -0.3720 H         1 UNK         0.1085 
     77 H77        29.2491   -1.1468    0.6405 H         1 UNK         0.0836 
     78 H78        28.5527   -2.7231    0.3982 H         1 UNK         0.0836 
     79 H79        29.9193   -3.7772   -1.2273 H         1 UNK         0.0731 
     80 H80        31.1983   -2.5895   -1.3276 H         1 UNK         0.0731 
     81 H81        32.4118   -2.3618   -3.4200 H         1 UNK         0.1312 
     82 H82        31.0854   -4.5298   -6.8788 H         1 UNK         0.1406 
     83 H83        28.6597   -4.4238   -3.3467 H         1 UNK         0.1631 
     84 H84        28.0347   -5.8852   -5.1289 H         1 UNK         0.0717 
     85 H85        29.2477   -6.3193   -6.3019 H         1 UNK         0.0717 
     86 H86        25.7613   -3.9607   -6.0780 H         1 UNK         0.0934 
     87 H87        27.1422   -3.2977   -5.2467 H         1 UNK         0.0934 
     88 H88        26.2244   -2.3784   -8.0097 H         1 UNK         0.0739 
     89 H89        24.8886   -1.7582   -5.6754 H         1 UNK         0.3093 
     90 H90        24.0122    1.4881   -6.0451 H         1 UNK         0.0818 
     91 H91        21.7872    1.2078   -7.1364 H         1 UNK         0.0819 
     92 H92        23.0703    1.2733   -8.3297 H         1 UNK         0.0819 
     93 H93        22.3431   -0.2729   -7.9185 H         1 UNK         0.0819 
     94 H94        22.3568   -0.8744   -5.5218 H         1 UNK         0.3041 
     95 H95        22.2742   -0.2145   -2.2223 H         1 UNK         0.0784 
     96 H96        20.7063   -0.9226   -4.0377 H         1 UNK         0.0793 
     97 H97        21.6484   -2.3921   -4.3002 H         1 UNK         0.0793 
     98 H98        20.8144   -2.1318   -2.7768 H         1 UNK         0.0793 
     99 H99        23.5291   -1.7820   -1.2673 H         1 UNK         0.3024 
    100 H100       24.4442   -4.0389   -1.0795 H         1 UNK         0.1171 
    101 H101       25.0486   -5.5448   -2.9233 H         1 UNK         0.0786 
    102 H102       26.4170   -4.5454   -3.3674 H         1 UNK         0.0786 
    103 H103       26.4145   -5.4058   -1.8275 H         1 UNK         0.0786 
    104 H104       27.0104   -2.7039   -1.7275 H         1 UNK         0.2977 
    105 H105       27.6888   -0.7084   -5.1708 H         1 UNK         0.3127 
    106 H106       30.2699   -0.4490   -6.3437 H         1 UNK         0.0770 
    107 H107       30.5628    1.3373   -4.5168 H         1 UNK         0.0814 
    108 H108       30.1011   -0.2555   -3.9626 H         1 UNK         0.0814 
    109 H109       28.8958    1.0348   -4.0477 H         1 UNK         0.0814 
    110 H110       27.3640    1.4964   -6.7636 H         1 UNK         0.2983 
    111 H111       28.7581    3.7783   -7.9544 H         1 UNK         0.0947 
    112 H112       26.4640    4.5667   -8.4762 H         1 UNK         0.0806 
    113 H113       26.5872    4.1117   -6.7849 H         1 UNK         0.0806 
    114 H114       25.7780    3.0449   -7.9312 H         1 UNK         0.0806 
    115 H115       26.8418    0.9678   -9.0831 H         1 UNK         0.3000 
    116 H116       27.0280    1.4959  -11.8664 H         1 UNK         0.0850 
    117 H117       25.3214   -0.0056  -10.8773 H         1 UNK         0.0810 
    118 H118       26.5672   -1.1428  -10.3712 H         1 UNK         0.0810 
    119 H119       26.2571   -0.8774  -12.0830 H         1 UNK         0.0810 
    120 H120       29.0324   -0.6282   -9.7530 H         1 UNK         0.3040 
    121 H121       30.8247   -1.3653  -11.9346 H         1 UNK         0.0766 
    122 H122       30.9008   -1.9110   -8.9267 H         1 UNK         0.0812 
    123 H123       31.9778   -2.6401  -10.1097 H         1 UNK         0.0812 
    124 H124       30.2545   -2.9819  -10.1628 H         1 UNK         0.0812 
    125 H125       30.6471    1.3742   -9.9442 H         1 UNK         0.3205 
    126 H126       31.9077    3.1209   -9.4763 H         1 UNK         0.0754 
    127 H127       33.6774    3.8370  -11.0428 H         1 UNK         0.0769 
    128 H128       32.2984    3.2201  -11.9384 H         1 UNK         0.0769 
    129 H129       33.7501    2.2352  -11.7604 H         1 UNK         0.0769 
    130 H130       32.1467    1.3251   -7.6587 H         1 UNK         0.2981 
    131 H131       34.9446    0.6144   -7.0763 H         1 UNK         0.0541 
    132 H132       33.0297    3.4234   -6.4489 H         1 UNK         0.3459 
    133 H133       33.9837    3.9958   -5.1019 H         1 UNK         0.3459 
    134 H134       32.4208    0.0102   -5.4589 H         1 UNK         0.0612 
    135 H135       34.0226   -0.5932   -5.1219 H         1 UNK         0.0612 
    136 H136       33.5011   -3.9666   -6.5208 H         1 UNK         0.0624 
    137 H137       34.0019   -2.9394   -5.2087 H         1 UNK         0.0624 
@<TRIPOS>BOND
     1    1    2 1    
     2    1   72 1    
     3    1   73 1    
     4    1   74 1    
     5    2    3 2    
     6    2    4 am   BACKBONE|DICT|INTERRES
     7    4    5 1    
     8    4   75 1    
     9    5    6 1    
    10    5   35 1    
    11    5   76 1    
    12    6    7 1    
    13    6   77 1    
    14    6   78 1    
    15    7    8 1    
    16    8    9 1    
    17    8   79 1    
    18    8   80 1    
    19    9   10 ar   
    20    9   14 ar   
    21   10   11 ar   
    22   10   81 1    
    23   11   12 ar   
    24   11   71 1    
    25   12   13 ar   
    26   12   82 1    
    27   13   14 ar   
    28   13   15 1    
    29   14   83 1    
    30   15   16 1    
    31   15   84 1    
    32   15   85 1    
    33   16   17 1    
    34   17   18 1    
    35   17   86 1    
    36   17   87 1    
    37   18   19 1    
    38   18   37 1    
    39   18   88 1    
    40   19   20 am   BACKBONE|DICT|INTERRES
    41   19   89 1    
    42   20   21 2    
    43   20   22 1    
    44   22   23 1    
    45   22   24 1    
    46   22   90 1    
    47   23   91 1    
    48   23   92 1    
    49   23   93 1    
    50   24   25 am   BACKBONE|DICT|INTERRES
    51   24   94 1    
    52   25   26 2    
    53   25   27 1    
    54   27   28 1    
    55   27   29 1    
    56   27   95 1    
    57   28   96 1    
    58   28   97 1    
    59   28   98 1    
    60   29   30 am   BACKBONE|DICT|INTERRES
    61   29   99 1    
    62   30   31 2    
    63   30   32 1    
    64   32   33 1    
    65   32   34 1    
    66   32  100 1    
    67   33  101 1    
    68   33  102 1    
    69   33  103 1    
    70   34   35 am   BACKBONE|DICT|INTERRES
    71   34  104 1    
    72   35   36 2    
    73   37   38 2    
    74   37   39 am   BACKBONE|DICT|INTERRES
    75   39   40 1    
    76   39  105 1    
    77   40   41 1    
    78   40   42 1    
    79   40  106 1    
    80   41  107 1    
    81   41  108 1    
    82   41  109 1    
    83   42   43 2    
    84   42   44 am   BACKBONE|DICT|INTERRES
    85   44   45 1    
    86   44  110 1    
    87   45   46 1    
    88   45   47 1    
    89   45  111 1    
    90   46  112 1    
    91   46  113 1    
    92   46  114 1    
    93   47   48 2    
    94   47   49 am   BACKBONE|DICT|INTERRES
    95   49   50 1    
    96   49  115 1    
    97   50   51 1    
    98   50   52 1    
    99   50  116 1    
   100   51  117 1    
   101   51  118 1    
   102   51  119 1    
   103   52   53 2    
   104   52   54 am   BACKBONE|DICT|INTERRES
   105   54   55 1    
   106   54  120 1    
   107   55   56 1    
   108   55   57 1    
   109   55  121 1    
   110   56  122 1    
   111   56  123 1    
   112   56  124 1    
   113   57   58 2    
   114   57   59 am   BACKBONE|DICT|INTERRES
   115   59   60 1    
   116   59  125 1    
   117   60   61 1    
   118   60   62 1    
   119   60  126 1    
   120   61  127 1    
   121   61  128 1    
   122   61  129 1    
   123   62   63 2    
   124   62   64 am   BACKBONE|DICT|INTERRES
   125   64   65 1    
   126   64  130 1    
   127   65   66 1    
   128   65   69 1    
   129   65  131 1    
   130   66   67 am   BACKBONE|DICT|INTERRES
   131   66   68 2    
   132   67  132 1    
   133   67  133 1    
   134   69   70 1    
   135   69  134 1    
   136   69  135 1    
   137   70   71 1    
   138   71  136 1    
   139   71  137 1    
@<TRIPOS>SUBSTRUCTURE
     1 UNK         1 GROUP             0       ****    0 ROOT    
