@<TRIPOS>MOLECULE
3R137
137   139    1
SMALL
USER_CHARGES


@<TRIPOS>ATOM
      1 CA         23.4589   -0.4707   -6.9537 C.3       0 UNK        -0.2020 
      2 C          24.5134   -1.5453   -7.1714 C.2       0 UNK         0.4855 
      3 O          24.5447   -2.1692   -8.2319 O.2       0 UNK        -0.5197 
      4 N          25.3685   -1.7689   -6.1677 N.am      1 UNK        -0.4892 
      5 CA         26.3175   -2.8840   -6.1128 C.3       1 UNK         0.0835 
      6 C6         27.5435   -2.5309   -5.2352 C.3       12 UNK        -0.0855 
      7 S7         28.9428   -3.6695   -5.5053 S.3       12 UNK        -0.2931 
      8 C8         29.6439   -3.7975   -3.8316 C.3       12 UNK         0.0378 
      9 C9         30.3449   -2.5141   -3.4069 C.ar      12 UNK        -0.0802 
     10 C10        31.5811   -2.1744   -3.9656 C.ar      12 UNK        -0.0944 
     11 C11        32.2541   -1.0219   -3.5515 C.ar      12 UNK        -0.0787 
     12 C12        31.6768   -0.2010   -2.5792 C.ar      12 UNK        -0.0862 
     13 C13        30.4423   -0.5261   -2.0083 C.ar      12 UNK        -0.0733 
     14 C14        29.7820   -1.6888   -2.4277 C.ar      12 UNK        -0.0832 
     15 C15        29.8915    0.3573   -0.8902 C.3       12 UNK         0.0240 
     16 S16        28.0735    0.4824   -0.8342 S.3       12 UNK        -0.2522 
     17 C17        27.7083    1.5036   -2.3030 C.3       12 UNK        -0.0967 
     18 CA         26.5923    0.8868   -3.1840 C.3       5 UNK         0.0660 
     19 N          25.3733    0.6381   -2.4099 N.am      5 UNK        -0.4015 
     20 C          24.4699   -0.3081   -2.6752 C.2       4 UNK         0.4946 
     21 O          24.5813   -1.1419   -3.5809 O.2       4 UNK        -0.5353 
     22 CA         23.2143   -0.3009   -1.7955 C.3       4 UNK         0.0277 
     23 CB         22.1654    0.6675   -2.3674 C.3       4 UNK        -0.1981 
     24 N          22.6569   -1.6483   -1.7737 N.am      4 UNK        -0.4209 
     25 C          22.3790   -2.3689   -0.6808 C.2       3 UNK         0.4942 
     26 O          22.4425   -1.9288    0.4679 O.2       3 UNK        -0.5208 
     27 CA         21.9634   -3.8379   -0.9006 C.3       3 UNK         0.0250 
     28 CB         20.4401   -3.9926   -0.7601 C.3       3 UNK        -0.1990 
     29 N          22.3831   -4.3766   -2.2001 N.am      3 UNK        -0.4232 
     30 C          23.6533   -4.6191   -2.5540 C.2       2 UNK         0.4993 
     31 O          24.6114   -4.4843   -1.7916 O.2       2 UNK        -0.5286 
     32 CA         23.9148   -5.0354   -4.0066 C.3       2 UNK         0.0209 
     33 CB         22.6451   -5.2957   -4.8480 C.3       2 UNK        -0.1931 
     34 N          24.7128   -3.9811   -4.6237 N.am      2 UNK        -0.4546 
     35 C          25.5971   -4.1542   -5.6136 C.2       1 UNK         0.5154 
     36 O          25.8246   -5.2426   -6.1449 O.2       1 UNK        -0.5181 
     37 C          26.2606    1.8221   -4.3638 C.2       5 UNK         0.5014 
     38 O          25.3175    2.6129   -4.2678 O.2       5 UNK        -0.5248 
     39 N          27.0538    1.7530   -5.4380 N.am      6 UNK        -0.4434 
     40 CA         26.9462    2.6273   -6.6033 C.3       6 UNK         0.0363 
     41 CB         25.8374    2.1280   -7.5476 C.3       6 UNK        -0.1936 
     42 C          28.2926    2.6588   -7.3276 C.2       6 UNK         0.5081 
     43 O          29.0548    1.6936   -7.2388 O.2       6 UNK        -0.5248 
     44 N          28.5340    3.7396   -8.0826 N.am      7 UNK        -0.4718 
     45 CA         29.7376    3.9492   -8.9000 C.3       7 UNK         0.0273 
     46 CB         29.7099    5.3670   -9.4925 C.3       7 UNK        -0.1935 
     47 C          29.9272    2.9044  -10.0151 C.2       7 UNK         0.5018 
     48 O          31.0607    2.6660  -10.4324 O.2       7 UNK        -0.5186 
     49 N          28.8280    2.2572  -10.4315 N.am      8 UNK        -0.4240 
     50 CA         28.7885    1.1249  -11.3629 C.3       8 UNK         0.0235 
     51 CB         27.3221    0.7296  -11.6038 C.3       8 UNK        -0.2000 
     52 C          29.6062   -0.1015  -10.9088 C.2       8 UNK         0.4941 
     53 O          29.9716   -0.9193  -11.7537 O.2       8 UNK        -0.5273 
     54 N          29.9062   -0.1993   -9.6043 N.am      9 UNK        -0.4262 
     55 CA         30.8126   -1.1938   -9.0283 C.3       9 UNK         0.0264 
     56 CB         30.6437   -1.1863   -7.5023 C.3       9 UNK        -0.1955 
     57 C          32.2931   -0.9680   -9.3919 C.2       9 UNK         0.5031 
     58 O          33.0898   -1.8921   -9.2174 O.2       9 UNK        -0.5390 
     59 N          32.6480    0.2436   -9.8536 N.am      10 UNK        -0.4204 
     60 CA         33.9814    0.7457  -10.2183 C.3       10 UNK         0.0237 
     61 CB         34.6115   -0.0743  -11.3614 C.3       10 UNK        -0.1985 
     62 C          34.9477    0.8909   -9.0291 C.2       10 UNK         0.4970 
     63 O          35.5671    1.9459   -8.8887 O.2       10 UNK        -0.4914 
     64 N          35.0451   -0.1537   -8.1990 N.am      11 UNK        -0.4285 
     65 CA         35.8209   -0.2270   -6.9495 C.3       11 UNK         0.1007 
     66 C          37.3685   -0.1511   -7.1302 C.2       11 UNK         0.5703 
     67 N          37.9058   -0.3788   -8.3231 N.am      11 UNK        -0.7361 
     68 O          38.1011    0.0814   -6.1710 O.2       11 UNK        -0.4986 
     69 C69        35.2887    0.7422   -5.8531 C.3       12 UNK        -0.0947 
     70 S70        33.5157    0.5009   -5.4881 S.3       12 UNK        -0.2240 
     71 C71        33.6253   -0.6842   -4.1156 C.3       12 UNK         0.0194 
     72 H72        23.4253    0.2045   -7.8081 H         1 UNK         0.0906 
     73 H73        22.4765   -0.9289   -6.8441 H         1 UNK         0.0906 
     74 H74        23.6596    0.1205   -6.0598 H         1 UNK         0.0906 
     75 H75        25.2075   -1.2939   -5.2811 H         1 UNK         0.3140 
     76 H76        26.6727   -3.0833   -7.1268 H         1 UNK         0.1085 
     77 H77        27.2721   -2.5064   -4.1778 H         1 UNK         0.0836 
     78 H78        27.8976   -1.5277   -5.4766 H         1 UNK         0.0836 
     79 H79        30.3629   -4.6178   -3.8159 H         1 UNK         0.0731 
     80 H80        28.8581   -4.0708   -3.1254 H         1 UNK         0.0731 
     81 H81        32.0241   -2.8170   -4.7144 H         1 UNK         0.1312 
     82 H82        32.2058    0.6835   -2.2506 H         1 UNK         0.1406 
     83 H83        28.8384   -1.9648   -1.9777 H         1 UNK         0.1631 
     84 H84        30.3040    1.3653   -0.9592 H         1 UNK         0.0717 
     85 H85        30.2348   -0.0491    0.0619 H         1 UNK         0.0717 
     86 H86        27.4258    2.5000   -1.9563 H         1 UNK         0.0934 
     87 H87        28.6217    1.6341   -2.8870 H         1 UNK         0.0934 
     88 H88        26.9557   -0.0609   -3.5858 H         1 UNK         0.0739 
     89 H89        25.1803    1.3055   -1.6780 H         1 UNK         0.3093 
     90 H90        23.4940    0.0162   -0.7884 H         1 UNK         0.0818 
     91 H91        22.5484    1.6884   -2.3994 H         1 UNK         0.0819 
     92 H92        21.8768    0.3960   -3.3839 H         1 UNK         0.0819 
     93 H93        21.2633    0.6787   -1.7554 H         1 UNK         0.0819 
     94 H94        22.6399   -2.1118   -2.6707 H         1 UNK         0.3041 
     95 H95        22.4419   -4.4310   -0.1182 H         1 UNK         0.0784 
     96 H96        20.0992   -3.6301    0.2109 H         1 UNK         0.0793 
     97 H97        19.9038   -3.4285   -1.5243 H         1 UNK         0.0793 
     98 H98        20.1376   -5.0372   -0.8373 H         1 UNK         0.0793 
     99 H99        21.6567   -4.5220   -2.8868 H         1 UNK         0.3024 
    100 H100       24.5011   -5.9565   -3.9642 H         1 UNK         0.1171 
    101 H101       22.0418   -4.3956   -4.9722 H         1 UNK         0.0786 
    102 H102       22.9065   -5.6501   -5.8454 H         1 UNK         0.0786 
    103 H103       22.0191   -6.0665   -4.3961 H         1 UNK         0.0786 
    104 H104       24.6261   -3.0565   -4.2111 H         1 UNK         0.2977 
    105 H105       27.8548    1.1328   -5.4624 H         1 UNK         0.3127 
    106 H106       26.7146    3.6419   -6.2707 H         1 UNK         0.0770 
    107 H107       25.7634    2.7533   -8.4380 H         1 UNK         0.0814 
    108 H108       24.8635    2.1551   -7.0597 H         1 UNK         0.0814 
    109 H109       26.0234    1.1057   -7.8792 H         1 UNK         0.0814 
    110 H110       27.8452    4.4790   -8.1027 H         1 UNK         0.2983 
    111 H111       30.6034    3.8693   -8.2386 H         1 UNK         0.0947 
    112 H112       30.6058    5.5601  -10.0846 H         1 UNK         0.0806 
    113 H113       29.6737    6.1247   -8.7094 H         1 UNK         0.0806 
    114 H114       28.8494    5.5159  -10.1461 H         1 UNK         0.0806 
    115 H115       27.9469    2.5356  -10.0261 H         1 UNK         0.3000 
    116 H116       29.2165    1.4643  -12.3084 H         1 UNK         0.0850 
    117 H117       26.8352    0.4039  -10.6834 H         1 UNK         0.0810 
    118 H118       27.2514   -0.0926  -12.3175 H         1 UNK         0.0810 
    119 H119       26.7475    1.5605  -12.0138 H         1 UNK         0.0810 
    120 H120       29.5547    0.5058   -8.9649 H         1 UNK         0.3040 
    121 H121       30.5240   -2.1778   -9.4036 H         1 UNK         0.0766 
    122 H122       29.6026   -1.3358   -7.2206 H         1 UNK         0.0812 
    123 H123       30.9736   -0.2446   -7.0622 H         1 UNK         0.0812 
    124 H124       31.2263   -1.9833   -7.0390 H         1 UNK         0.0812 
    125 H125       31.9147    0.9417   -9.9435 H         1 UNK         0.3205 
    126 H126       33.8103    1.7531  -10.6015 H         1 UNK         0.0754 
    127 H127       35.5494    0.3753  -11.6898 H         1 UNK         0.0769 
    128 H128       33.9510   -0.1149  -12.2277 H         1 UNK         0.0769 
    129 H129       34.8321   -1.0990  -11.0613 H         1 UNK         0.0769 
    130 H130       34.4817   -0.9705   -8.4240 H         1 UNK         0.2981 
    131 H131       35.6530   -1.2390   -6.5802 H         1 UNK         0.0541 
    132 H132       38.9071   -0.3398   -8.4297 H         1 UNK         0.3459 
    133 H133       37.3189   -0.5828   -9.1157 H         1 UNK         0.3459 
    134 H134       35.4342    1.7791   -6.1591 H         1 UNK         0.0612 
    135 H135       35.8506    0.6250   -4.9250 H         1 UNK         0.0612 
    136 H136       34.1252   -1.5898   -4.4629 H         1 UNK         0.0624 
    137 H137       34.2532   -0.2681   -3.3262 H         1 UNK         0.0624 
@<TRIPOS>BOND
     1    1    2 1    
     2    1   72 1    
     3    1   73 1    
     4    1   74 1    
     5    2    3 2    
     6    2    4 am   BACKBONE|DICT|INTERRES
     7    4    5 1    
     8    4   75 1    
     9    5    6 1    
    10    5   35 1    
    11    5   76 1    
    12    6    7 1    
    13    6   77 1    
    14    6   78 1    
    15    7    8 1    
    16    8    9 1    
    17    8   79 1    
    18    8   80 1    
    19    9   10 ar   
    20    9   14 ar   
    21   10   11 ar   
    22   10   81 1    
    23   11   12 ar   
    24   11   71 1    
    25   12   13 ar   
    26   12   82 1    
    27   13   14 ar   
    28   13   15 1    
    29   14   83 1    
    30   15   16 1    
    31   15   84 1    
    32   15   85 1    
    33   16   17 1    
    34   17   18 1    
    35   17   86 1    
    36   17   87 1    
    37   18   19 1    
    38   18   37 1    
    39   18   88 1    
    40   19   20 am   BACKBONE|DICT|INTERRES
    41   19   89 1    
    42   20   21 2    
    43   20   22 1    
    44   22   23 1    
    45   22   24 1    
    46   22   90 1    
    47   23   91 1    
    48   23   92 1    
    49   23   93 1    
    50   24   25 am   BACKBONE|DICT|INTERRES
    51   24   94 1    
    52   25   26 2    
    53   25   27 1    
    54   27   28 1    
    55   27   29 1    
    56   27   95 1    
    57   28   96 1    
    58   28   97 1    
    59   28   98 1    
    60   29   30 am   BACKBONE|DICT|INTERRES
    61   29   99 1    
    62   30   31 2    
    63   30   32 1    
    64   32   33 1    
    65   32   34 1    
    66   32  100 1    
    67   33  101 1    
    68   33  102 1    
    69   33  103 1    
    70   34   35 am   BACKBONE|DICT|INTERRES
    71   34  104 1    
    72   35   36 2    
    73   37   38 2    
    74   37   39 am   BACKBONE|DICT|INTERRES
    75   39   40 1    
    76   39  105 1    
    77   40   41 1    
    78   40   42 1    
    79   40  106 1    
    80   41  107 1    
    81   41  108 1    
    82   41  109 1    
    83   42   43 2    
    84   42   44 am   BACKBONE|DICT|INTERRES
    85   44   45 1    
    86   44  110 1    
    87   45   46 1    
    88   45   47 1    
    89   45  111 1    
    90   46  112 1    
    91   46  113 1    
    92   46  114 1    
    93   47   48 2    
    94   47   49 am   BACKBONE|DICT|INTERRES
    95   49   50 1    
    96   49  115 1    
    97   50   51 1    
    98   50   52 1    
    99   50  116 1    
   100   51  117 1    
   101   51  118 1    
   102   51  119 1    
   103   52   53 2    
   104   52   54 am   BACKBONE|DICT|INTERRES
   105   54   55 1    
   106   54  120 1    
   107   55   56 1    
   108   55   57 1    
   109   55  121 1    
   110   56  122 1    
   111   56  123 1    
   112   56  124 1    
   113   57   58 2    
   114   57   59 am   BACKBONE|DICT|INTERRES
   115   59   60 1    
   116   59  125 1    
   117   60   61 1    
   118   60   62 1    
   119   60  126 1    
   120   61  127 1    
   121   61  128 1    
   122   61  129 1    
   123   62   63 2    
   124   62   64 am   BACKBONE|DICT|INTERRES
   125   64   65 1    
   126   64  130 1    
   127   65   66 1    
   128   65   69 1    
   129   65  131 1    
   130   66   67 am   BACKBONE|DICT|INTERRES
   131   66   68 2    
   132   67  132 1    
   133   67  133 1    
   134   69   70 1    
   135   69  134 1    
   136   69  135 1    
   137   70   71 1    
   138   71  136 1    
   139   71  137 1    
@<TRIPOS>SUBSTRUCTURE
     1 UNK         1 GROUP             0       ****    0 ROOT    
