@<TRIPOS>MOLECULE
3R137
137   139    1
SMALL
USER_CHARGES


@<TRIPOS>ATOM
      1 CA         26.0787   -8.2434   -0.1105 C.3       0 UNK        -0.2020 
      2 C          26.2387   -6.8215   -0.6275 C.2       0 UNK         0.4855 
      3 O          25.2694   -6.0619   -0.6399 O.2       0 UNK        -0.5197 
      4 N          27.4552   -6.4525   -1.0480 N.am      1 UNK        -0.4892 
      5 CA         27.7742   -5.1493   -1.6410 C.3       1 UNK         0.0835 
      6 C6         29.3056   -4.8883   -1.6300 C.3       12 UNK        -0.0855 
      7 S7         29.7177   -3.1546   -1.2544 S.3       12 UNK        -0.2931 
      8 C8         30.0247   -2.4753   -2.9156 C.3       12 UNK         0.0378 
      9 C9         30.4613   -1.0183   -2.8450 C.ar      12 UNK        -0.0802 
     10 C10        31.7145   -0.6250   -3.3252 C.ar      12 UNK        -0.0944 
     11 C11        32.1147    0.7118   -3.2435 C.ar      12 UNK        -0.0787 
     12 C12        31.2495    1.6567   -2.6839 C.ar      12 UNK        -0.0862 
     13 C13        29.9887    1.2847   -2.2077 C.ar      12 UNK        -0.0733 
     14 C14        29.6071   -0.0608   -2.2902 C.ar      12 UNK        -0.0832 
     15 C15        29.1012    2.3544   -1.5670 C.3       12 UNK         0.0240 
     16 S16        27.3245    1.9419   -1.4640 S.3       12 UNK        -0.2522 
     17 C17        26.6975    2.3814   -3.1182 C.3       12 UNK        -0.0967 
     18 CA         26.7188    1.1825   -4.1220 C.3       5 UNK         0.0660 
     19 N          25.4200    0.9661   -4.7616 N.am      5 UNK        -0.4015 
     20 C          24.8251    1.7942   -5.6342 C.2       4 UNK         0.4946 
     21 O          25.3081    2.8750   -5.9776 O.2       4 UNK        -0.5353 
     22 CA         23.4820    1.3474   -6.2396 C.3       4 UNK         0.0277 
     23 CB         23.3624    1.7570   -7.7200 C.3       4 UNK        -0.1981 
     24 N          23.2760   -0.1002   -6.1099 N.am      4 UNK        -0.4209 
     25 C          22.4795   -0.6771   -5.2016 C.2       3 UNK         0.4942 
     26 O          21.7932   -0.0536   -4.3914 O.2       3 UNK        -0.5208 
     27 CA         22.4531   -2.2152   -5.1800 C.3       3 UNK         0.0250 
     28 CB         21.4780   -2.7471   -6.2437 C.3       3 UNK        -0.1990 
     29 N          23.7562   -2.8769   -5.3400 N.am      3 UNK        -0.4232 
     30 C          24.8275   -2.6980   -4.5533 C.2       2 UNK         0.4993 
     31 O          24.9287   -1.8015   -3.7120 O.2       2 UNK        -0.5286 
     32 CA         25.9829   -3.6904   -4.7322 C.3       2 UNK         0.0209 
     33 CB         27.0368   -3.1702   -5.7225 C.3       2 UNK        -0.1931 
     34 N          26.6062   -3.9212   -3.4308 N.am      2 UNK        -0.4546 
     35 C          27.1984   -5.0652   -3.0701 C.2       1 UNK         0.5154 
     36 O          27.3204   -6.0349   -3.8243 O.2       1 UNK        -0.5181 
     37 C          27.8303    1.2114   -5.1980 C.2       5 UNK         0.5014 
     38 O          27.8395    0.3310   -6.0635 O.2       5 UNK        -0.5248 
     39 N          28.7170    2.2165   -5.1665 N.am      6 UNK        -0.4434 
     40 CA         29.8373    2.4085   -6.0924 C.3       6 UNK         0.0363 
     41 CB         30.5680    3.7152   -5.7445 C.3       6 UNK        -0.1936 
     42 C          29.4441    2.4125   -7.5787 C.2       6 UNK         0.5081 
     43 O          30.2025    1.8995   -8.4012 O.2       6 UNK        -0.5248 
     44 N          28.2590    2.9561   -7.8912 N.am      7 UNK        -0.4718 
     45 CA         27.7079    3.0230   -9.2468 C.3       7 UNK         0.0273 
     46 CB         26.4992    3.9722   -9.2573 C.3       7 UNK        -0.1935 
     47 C          27.3213    1.6503   -9.8244 C.2       7 UNK         0.5018 
     48 O          27.3609    1.4868  -11.0442 O.2       7 UNK        -0.5186 
     49 N          26.9645    0.6963   -8.9531 N.am      8 UNK        -0.4240 
     50 CA         26.6802   -0.6895   -9.3297 C.3       8 UNK         0.0235 
     51 CB         25.5362   -1.2445   -8.4668 C.3       8 UNK        -0.2000 
     52 C          27.9334   -1.5682   -9.2138 C.2       8 UNK         0.4941 
     53 O          28.1279   -2.4451  -10.0559 O.2       8 UNK        -0.5273 
     54 N          28.7587   -1.3235   -8.1847 N.am      9 UNK        -0.4262 
     55 CA         30.0062   -2.0488   -7.9338 C.3       9 UNK         0.0264 
     56 CB         30.5319   -1.6943   -6.5339 C.3       9 UNK        -0.1955 
     57 C          31.0944   -1.7801   -8.9862 C.2       9 UNK         0.5031 
     58 O          31.8802   -2.6848   -9.2714 O.2       9 UNK        -0.5390 
     59 N          31.1343   -0.5458   -9.5157 N.am      10 UNK        -0.4204 
     60 CA         32.1466   -0.0050  -10.4323 C.3       10 UNK         0.0237 
     61 CB         32.0873   -0.7071  -11.8058 C.3       10 UNK        -0.1985 
     62 C          33.5542   -0.0075   -9.8027 C.2       10 UNK         0.4970 
     63 O          34.5368   -0.3234  -10.4762 O.2       10 UNK        -0.4914 
     64 N          33.6127    0.3243   -8.5064 N.am      11 UNK        -0.4285 
     65 CA         34.8245    0.2970   -7.6757 C.3       11 UNK         0.1007 
     66 C          35.8405    1.4494   -7.9347 C.2       11 UNK         0.5703 
     67 N          35.5057    2.4714   -8.7140 N.am      11 UNK        -0.7361 
     68 O          36.9602    1.4050   -7.4301 O.2       11 UNK        -0.4986 
     69 C69        34.4662    0.1387   -6.1738 C.3       12 UNK        -0.0947 
     70 S70        33.4899    1.5268   -5.5031 S.3       12 UNK        -0.2240 
     71 C71        33.4929    1.1370   -3.7268 C.3       12 UNK         0.0194 
     72 H72        25.7314   -8.2303    0.9222 H         1 UNK         0.0906 
     73 H73        25.3441   -8.7799   -0.7103 H         1 UNK         0.0906 
     74 H74        27.0155   -8.7990   -0.1456 H         1 UNK         0.0906 
     75 H75        28.2034   -7.1315   -1.0526 H         1 UNK         0.3140 
     76 H76        27.2792   -4.3939   -1.0257 H         1 UNK         0.1085 
     77 H77        29.7811   -5.4770   -0.8436 H         1 UNK         0.0836 
     78 H78        29.7919   -5.2077   -2.5546 H         1 UNK         0.0836 
     79 H79        29.1144   -2.5459   -3.5111 H         1 UNK         0.0731 
     80 H80        30.7791   -3.0809   -3.4203 H         1 UNK         0.0731 
     81 H81        32.3845   -1.3576   -3.7539 H         1 UNK         0.1312 
     82 H82        31.5670    2.6877   -2.6073 H         1 UNK         0.1406 
     83 H83        28.6518   -0.3843   -1.9028 H         1 UNK         0.1631 
     84 H84        29.2169    3.3050   -2.0896 H         1 UNK         0.0717 
     85 H85        29.4637    2.5204   -0.5518 H         1 UNK         0.0717 
     86 H86        25.6654    2.6913   -2.9452 H         1 UNK         0.0934 
     87 H87        27.1731    3.2904   -3.4859 H         1 UNK         0.0934 
     88 H88        26.8943    0.2626   -3.5631 H         1 UNK         0.0739 
     89 H89        24.9758    0.0835   -4.5316 H         1 UNK         0.3093 
     90 H90        22.7043    1.8834   -5.6918 H         1 UNK         0.0818 
     91 H91        23.3185    2.8426   -7.8169 H         1 UNK         0.0819 
     92 H92        24.2138    1.4210   -8.3100 H         1 UNK         0.0819 
     93 H93        22.4550    1.3586   -8.1741 H         1 UNK         0.0819 
     94 H94        23.8055   -0.6963   -6.7284 H         1 UNK         0.3041 
     95 H95        22.0709   -2.5097   -4.2001 H         1 UNK         0.0784 
     96 H96        20.4946   -2.2861   -6.1388 H         1 UNK         0.0793 
     97 H97        21.8286   -2.5393   -7.2555 H         1 UNK         0.0793 
     98 H98        21.3372   -3.8243   -6.1513 H         1 UNK         0.0793 
     99 H99        23.7840   -3.6249   -6.0186 H         1 UNK         0.3024 
    100 H100       25.5747   -4.6336   -5.1039 H         1 UNK         0.1171 
    101 H101       26.6432   -3.1575   -6.7367 H         1 UNK         0.0786 
    102 H102       27.3576   -2.1597   -5.4719 H         1 UNK         0.0786 
    103 H103       27.9219   -3.8063   -5.7394 H         1 UNK         0.0786 
    104 H104       26.4826   -3.1694   -2.7636 H         1 UNK         0.2977 
    105 H105       28.6336    2.8977   -4.4283 H         1 UNK         0.3127 
    106 H106       30.5261    1.5784   -5.9352 H         1 UNK         0.0770 
    107 H107       29.9160    4.5837   -5.8445 H         1 UNK         0.0814 
    108 H108       31.4214    3.8705   -6.4064 H         1 UNK         0.0814 
    109 H109       30.9551    3.7002   -4.7269 H         1 UNK         0.0814 
    110 H110       27.6809    3.3186   -7.1445 H         1 UNK         0.2983 
    111 H111       28.4770    3.4422   -9.8995 H         1 UNK         0.0947 
    112 H112       26.0789    4.0590  -10.2603 H         1 UNK         0.0806 
    113 H113       26.7795    4.9757   -8.9370 H         1 UNK         0.0806 
    114 H114       25.7035    3.6206   -8.6001 H         1 UNK         0.0806 
    115 H115       27.0221    0.9026   -7.9629 H         1 UNK         0.3000 
    116 H116       26.3536   -0.7320  -10.3713 H         1 UNK         0.0850 
    117 H117       25.4172   -2.3185   -8.6177 H         1 UNK         0.0810 
    118 H118       24.5865   -0.7878   -8.7401 H         1 UNK         0.0810 
    119 H119       25.7140   -1.0716   -7.4055 H         1 UNK         0.0810 
    120 H120       28.4886   -0.6291   -7.4908 H         1 UNK         0.3040 
    121 H121       29.7789   -3.1168   -7.9528 H         1 UNK         0.0766 
    122 H122       30.8230   -0.6470   -6.4633 H         1 UNK         0.0812 
    123 H123       31.4088   -2.2923   -6.2827 H         1 UNK         0.0812 
    124 H124       29.7804   -1.8806   -5.7691 H         1 UNK         0.0812 
    125 H125       30.4838    0.1484   -9.1545 H         1 UNK         0.3205 
    126 H126       31.8859    1.0431  -10.5877 H         1 UNK         0.0754 
    127 H127       32.7460   -0.2167  -12.5236 H         1 UNK         0.0769 
    128 H128       31.0794   -0.6802  -12.2201 H         1 UNK         0.0769 
    129 H129       32.3960   -1.7511  -11.7429 H         1 UNK         0.0769 
    130 H130       32.7656    0.6096   -8.0375 H         1 UNK         0.2981 
    131 H131       35.3634   -0.6109   -7.9534 H         1 UNK         0.0541 
    132 H132       36.1744    3.2069   -8.8786 H         1 UNK         0.3459 
    133 H133       34.5902    2.5163   -9.1303 H         1 UNK         0.3459 
    134 H134       35.3751    0.0244   -5.5805 H         1 UNK         0.0612 
    135 H135       33.8954   -0.7794   -6.0255 H         1 UNK         0.0612 
    136 H136       34.2224    0.3569   -3.5052 H         1 UNK         0.0624 
    137 H137       33.8247    2.0207   -3.1797 H         1 UNK         0.0624 
@<TRIPOS>BOND
     1    1    2 1    
     2    1   72 1    
     3    1   73 1    
     4    1   74 1    
     5    2    3 2    
     6    2    4 am   BACKBONE|DICT|INTERRES
     7    4    5 1    
     8    4   75 1    
     9    5    6 1    
    10    5   35 1    
    11    5   76 1    
    12    6    7 1    
    13    6   77 1    
    14    6   78 1    
    15    7    8 1    
    16    8    9 1    
    17    8   79 1    
    18    8   80 1    
    19    9   10 ar   
    20    9   14 ar   
    21   10   11 ar   
    22   10   81 1    
    23   11   12 ar   
    24   11   71 1    
    25   12   13 ar   
    26   12   82 1    
    27   13   14 ar   
    28   13   15 1    
    29   14   83 1    
    30   15   16 1    
    31   15   84 1    
    32   15   85 1    
    33   16   17 1    
    34   17   18 1    
    35   17   86 1    
    36   17   87 1    
    37   18   19 1    
    38   18   37 1    
    39   18   88 1    
    40   19   20 am   BACKBONE|DICT|INTERRES
    41   19   89 1    
    42   20   21 2    
    43   20   22 1    
    44   22   23 1    
    45   22   24 1    
    46   22   90 1    
    47   23   91 1    
    48   23   92 1    
    49   23   93 1    
    50   24   25 am   BACKBONE|DICT|INTERRES
    51   24   94 1    
    52   25   26 2    
    53   25   27 1    
    54   27   28 1    
    55   27   29 1    
    56   27   95 1    
    57   28   96 1    
    58   28   97 1    
    59   28   98 1    
    60   29   30 am   BACKBONE|DICT|INTERRES
    61   29   99 1    
    62   30   31 2    
    63   30   32 1    
    64   32   33 1    
    65   32   34 1    
    66   32  100 1    
    67   33  101 1    
    68   33  102 1    
    69   33  103 1    
    70   34   35 am   BACKBONE|DICT|INTERRES
    71   34  104 1    
    72   35   36 2    
    73   37   38 2    
    74   37   39 am   BACKBONE|DICT|INTERRES
    75   39   40 1    
    76   39  105 1    
    77   40   41 1    
    78   40   42 1    
    79   40  106 1    
    80   41  107 1    
    81   41  108 1    
    82   41  109 1    
    83   42   43 2    
    84   42   44 am   BACKBONE|DICT|INTERRES
    85   44   45 1    
    86   44  110 1    
    87   45   46 1    
    88   45   47 1    
    89   45  111 1    
    90   46  112 1    
    91   46  113 1    
    92   46  114 1    
    93   47   48 2    
    94   47   49 am   BACKBONE|DICT|INTERRES
    95   49   50 1    
    96   49  115 1    
    97   50   51 1    
    98   50   52 1    
    99   50  116 1    
   100   51  117 1    
   101   51  118 1    
   102   51  119 1    
   103   52   53 2    
   104   52   54 am   BACKBONE|DICT|INTERRES
   105   54   55 1    
   106   54  120 1    
   107   55   56 1    
   108   55   57 1    
   109   55  121 1    
   110   56  122 1    
   111   56  123 1    
   112   56  124 1    
   113   57   58 2    
   114   57   59 am   BACKBONE|DICT|INTERRES
   115   59   60 1    
   116   59  125 1    
   117   60   61 1    
   118   60   62 1    
   119   60  126 1    
   120   61  127 1    
   121   61  128 1    
   122   61  129 1    
   123   62   63 2    
   124   62   64 am   BACKBONE|DICT|INTERRES
   125   64   65 1    
   126   64  130 1    
   127   65   66 1    
   128   65   69 1    
   129   65  131 1    
   130   66   67 am   BACKBONE|DICT|INTERRES
   131   66   68 2    
   132   67  132 1    
   133   67  133 1    
   134   69   70 1    
   135   69  134 1    
   136   69  135 1    
   137   70   71 1    
   138   71  136 1    
   139   71  137 1    
@<TRIPOS>SUBSTRUCTURE
     1 UNK         1 GROUP             0       ****    0 ROOT    
