@<TRIPOS>MOLECULE
3R137
137   139    1
SMALL
USER_CHARGES


@<TRIPOS>ATOM
      1 CA         30.5204    0.2836    0.7450 C.3       0 UNK        -0.2020 
      2 C          29.7207   -0.6065   -0.1944 C.2       0 UNK         0.4855 
      3 O          29.4476   -0.2085   -1.3250 O.2       0 UNK        -0.5197 
      4 N          29.3540   -1.8101    0.2619 N.am      1 UNK        -0.4892 
      5 CA         28.5293   -2.7705   -0.4788 C.3       1 UNK         0.0835 
      6 C6         28.7654   -4.2083    0.0508 C.3       12 UNK        -0.0855 
      7 S7         28.4184   -5.5142   -1.1771 S.3       12 UNK        -0.2931 
      8 C8         30.0289   -5.7078   -2.0140 C.3       12 UNK         0.0378 
      9 C9         30.1372   -4.7692   -3.2059 C.ar      12 UNK        -0.0802 
     10 C10        30.7756   -3.5301   -3.0852 C.ar      12 UNK        -0.0944 
     11 C11        30.7914   -2.6323   -4.1573 C.ar      12 UNK        -0.0787 
     12 C12        30.1847   -3.0003   -5.3624 C.ar      12 UNK        -0.0862 
     13 C13        29.5862   -4.2531   -5.5123 C.ar      12 UNK        -0.0733 
     14 C14        29.5663   -5.1349   -4.4288 C.ar      12 UNK        -0.0832 
     15 C15        28.9636   -4.6432   -6.8471 C.3       12 UNK         0.0240 
     16 S16        27.1914   -5.0552   -6.7345 S.3       12 UNK        -0.2522 
     17 C17        26.4759   -3.6008   -5.9001 C.3       12 UNK        -0.0967 
     18 CA         26.1461   -2.4325   -6.8662 C.3       5 UNK         0.0660 
     19 N          24.9040   -1.7572   -6.4916 N.am      5 UNK        -0.4015 
     20 C          24.1981   -0.9471   -7.2916 C.2       4 UNK         0.4946 
     21 O          24.4825   -0.7242   -8.4684 O.2       4 UNK        -0.5353 
     22 CA         22.9805   -0.2474   -6.6617 C.3       4 UNK         0.0277 
     23 CB         21.7201   -1.1130   -6.8192 C.3       4 UNK        -0.1981 
     24 N          23.1766    0.0807   -5.2453 N.am      4 UNK        -0.4209 
     25 C          24.0578    0.9883   -4.8018 C.2       3 UNK         0.4942 
     26 O          24.7731    1.6627   -5.5412 O.2       3 UNK        -0.5208 
     27 CA         24.1998    1.1382   -3.2777 C.3       3 UNK         0.0250 
     28 CB         23.1166    2.0786   -2.7255 C.3       3 UNK        -0.1990 
     29 N          24.1819   -0.1278   -2.5325 N.am      3 UNK        -0.4232 
     30 C          25.0259   -1.1498   -2.7311 C.2       2 UNK         0.4993 
     31 O          25.8374   -1.2018   -3.6588 O.2       2 UNK        -0.5286 
     32 CA         24.9339   -2.3320   -1.7577 C.3       2 UNK         0.0209 
     33 CB         24.1169   -3.4783   -2.3744 C.3       2 UNK        -0.1931 
     34 N          26.2872   -2.8051   -1.4683 N.am      2 UNK        -0.4546 
     35 C          27.0427   -2.3549   -0.4599 C.2       1 UNK         0.5154 
     36 O          26.6097   -1.6434    0.4519 O.2       1 UNK        -0.5181 
     37 C          27.2958   -1.4120   -6.9478 C.2       5 UNK         0.5014 
     38 O          28.0177   -1.3831   -7.9439 O.2       5 UNK        -0.5248 
     39 N          27.4139   -0.5626   -5.9173 N.am      6 UNK        -0.4434 
     40 CA         28.4010    0.5141   -5.8166 C.3       6 UNK         0.0363 
     41 CB         28.2797    1.1833   -4.4399 C.3       6 UNK        -0.1936 
     42 C          28.2885    1.5631   -6.9347 C.2       6 UNK         0.5081 
     43 O          29.3138    2.0827   -7.3699 O.2       6 UNK        -0.5248 
     44 N          27.0580    1.8466   -7.3838 N.am      7 UNK        -0.4718 
     45 CA         26.7706    2.7268   -8.5178 C.3       7 UNK         0.0273 
     46 CB         25.2804    3.1034   -8.5018 C.3       7 UNK        -0.1935 
     47 C          27.1530    2.1130   -9.8767 C.2       7 UNK         0.5018 
     48 O          27.5181    2.8591  -10.7863 O.2       7 UNK        -0.5186 
     49 N          27.0434    0.7829  -10.0030 N.am      8 UNK        -0.4240 
     50 CA         27.4036    0.0367  -11.2107 C.3       8 UNK         0.0235 
     51 CB         26.6478   -1.3025  -11.2310 C.3       8 UNK        -0.2000 
     52 C          28.9203   -0.1906  -11.3189 C.2       8 UNK         0.4941 
     53 O          29.4761   -0.0685  -12.4119 O.2       8 UNK        -0.5273 
     54 N          29.5536   -0.5305  -10.1902 N.am      9 UNK        -0.4262 
     55 CA         30.9934   -0.7488  -10.0533 C.3       9 UNK         0.0264 
     56 CB         31.2269   -1.5665   -8.7728 C.3       9 UNK        -0.1955 
     57 C          31.7922    0.5672  -10.0064 C.2       9 UNK         0.5031 
     58 O          31.2184    1.6561   -9.9547 O.2       9 UNK        -0.5390 
     59 N          33.1238    0.4349   -9.9752 N.am      10 UNK        -0.4204 
     60 CA         34.0804    1.5345   -9.8131 C.3       10 UNK         0.0237 
     61 CB         35.3167    1.2463  -10.6869 C.3       10 UNK        -0.1985 
     62 C          34.4543    1.7723   -8.3330 C.2       10 UNK         0.4970 
     63 O          35.5828    2.1818   -8.0537 O.2       10 UNK        -0.4914 
     64 N          33.5253    1.4954   -7.4075 N.am      11 UNK        -0.4285 
     65 CA         33.6885    1.7018   -5.9596 C.3       11 UNK         0.1007 
     66 C          33.8136    3.2034   -5.5785 C.2       11 UNK         0.5703 
     67 N          34.5505    3.5136   -4.5202 N.am      11 UNK        -0.7361 
     68 O          33.2224    4.0815   -6.2047 O.2       11 UNK        -0.4986 
     69 C69        32.5470    1.0290   -5.1533 C.3       12 UNK        -0.0947 
     70 S70        32.5076   -0.7804   -5.3631 S.3       12 UNK        -0.2240 
     71 C71        31.4025   -1.2450   -3.9893 C.3       12 UNK         0.0194 
     72 H72        29.9795    1.2108    0.9323 H         1 UNK         0.0906 
     73 H73        30.7096   -0.1988    1.7038 H         1 UNK         0.0906 
     74 H74        31.4810    0.5343    0.2959 H         1 UNK         0.0906 
     75 H75        29.5673   -2.0616    1.2167 H         1 UNK         0.3140 
     76 H76        28.8427   -2.7236   -1.5213 H         1 UNK         0.1085 
     77 H77        28.1657   -4.3976    0.9435 H         1 UNK         0.0836 
     78 H78        29.8012   -4.3270    0.3730 H         1 UNK         0.0836 
     79 H79        30.8502   -5.5470   -1.3142 H         1 UNK         0.0731 
     80 H80        30.1234   -6.7398   -2.3553 H         1 UNK         0.0731 
     81 H81        31.2189   -3.2460   -2.1404 H         1 UNK         0.1312 
     82 H82        30.1763   -2.3049   -6.1877 H         1 UNK         0.1406 
     83 H83        29.0799   -6.0959   -4.5306 H         1 UNK         0.1631 
     84 H84        29.4980   -5.5068   -7.2447 H         1 UNK         0.0717 
     85 H85        29.0873   -3.8481   -7.5825 H         1 UNK         0.0717 
     86 H86        25.5564   -3.9675   -5.4432 H         1 UNK         0.0934 
     87 H87        27.0977   -3.2890   -5.0585 H         1 UNK         0.0934 
     88 H88        25.9956   -2.8381   -7.8695 H         1 UNK         0.0739 
     89 H89        24.6442   -1.8136   -5.5172 H         1 UNK         0.3093 
     90 H90        22.8232    0.6871   -7.2050 H         1 UNK         0.0818 
     91 H91        20.8340   -0.5942   -6.4531 H         1 UNK         0.0819 
     92 H92        21.5418   -1.3528   -7.8685 H         1 UNK         0.0819 
     93 H93        21.8050   -2.0570   -6.2794 H         1 UNK         0.0819 
     94 H94        22.6211   -0.4244   -4.5700 H         1 UNK         0.3041 
     95 H95        25.1712    1.6010   -3.0925 H         1 UNK         0.0784 
     96 H96        23.1223    3.0333   -3.2539 H         1 UNK         0.0793 
     97 H97        22.1176    1.6537   -2.8313 H         1 UNK         0.0793 
     98 H98        23.2796    2.2959   -1.6697 H         1 UNK         0.0793 
     99 H99        23.5313   -0.1806   -1.7614 H         1 UNK         0.3024 
    100 H100       24.4441   -2.0082   -0.8362 H         1 UNK         0.1171 
    101 H101       23.1019   -3.1551   -2.6097 H         1 UNK         0.0786 
    102 H102       24.0363   -4.3187   -1.6847 H         1 UNK         0.0786 
    103 H103       24.5652   -3.8481   -3.2962 H         1 UNK         0.0786 
    104 H104       26.7239   -3.3694   -2.1835 H         1 UNK         0.2977 
    105 H105       26.7943   -0.6858   -5.1169 H         1 UNK         0.3127 
    106 H106       29.3880    0.0566   -5.8971 H         1 UNK         0.0770 
    107 H107       27.3342    1.7154   -4.3337 H         1 UNK         0.0814 
    108 H108       29.0823    1.9053   -4.2848 H         1 UNK         0.0814 
    109 H109       28.3388    0.4505   -3.6357 H         1 UNK         0.0814 
    110 H110       26.2598    1.4582   -6.8902 H         1 UNK         0.2983 
    111 H111       27.3560    3.6408   -8.3947 H         1 UNK         0.0947 
    112 H112       25.0360    3.7713   -9.3289 H         1 UNK         0.0806 
    113 H113       25.0119    3.6184   -7.5792 H         1 UNK         0.0806 
    114 H114       24.6420    2.2233   -8.5911 H         1 UNK         0.0806 
    115 H115       26.7346    0.2426   -9.2051 H         1 UNK         0.3000 
    116 H116       27.0894    0.6127  -12.0840 H         1 UNK         0.0850 
    117 H117       26.8774   -1.8661  -12.1361 H         1 UNK         0.0810 
    118 H118       25.5688   -1.1477  -11.2088 H         1 UNK         0.0810 
    119 H119       26.9103   -1.9310  -10.3793 H         1 UNK         0.0810 
    120 H120       28.9998   -0.6425   -9.3436 H         1 UNK         0.3040 
    121 H121       31.3406   -1.3277  -10.9117 H         1 UNK         0.0766 
    122 H122       32.2773   -1.8238   -8.6340 H         1 UNK         0.0812 
    123 H123       30.6699   -2.5027   -8.7956 H         1 UNK         0.0812 
    124 H124       30.9068   -1.0061   -7.8944 H         1 UNK         0.0812 
    125 H125       33.5176   -0.4955   -9.9955 H         1 UNK         0.3205 
    126 H126       33.6333    2.4631  -10.1742 H         1 UNK         0.0754 
    127 H127       36.0181    2.0816  -10.6656 H         1 UNK         0.0769 
    128 H128       35.0376    1.0914  -11.7294 H         1 UNK         0.0769 
    129 H129       35.8535    0.3596  -10.3473 H         1 UNK         0.0769 
    130 H130       32.6067    1.2123   -7.7135 H         1 UNK         0.2981 
    131 H131       34.6259    1.2184   -5.6764 H         1 UNK         0.0541 
    132 H132       34.6333    4.4807   -4.2482 H         1 UNK         0.3459 
    133 H133       35.0319    2.8022   -3.9923 H         1 UNK         0.3459 
    134 H134       31.5773    1.4362   -5.4466 H         1 UNK         0.0612 
    135 H135       32.6601    1.2372   -4.0875 H         1 UNK         0.0612 
    136 H136       31.9631   -1.1784   -3.0558 H         1 UNK         0.0624 
    137 H137       30.5921   -0.5213   -3.9117 H         1 UNK         0.0624 
@<TRIPOS>BOND
     1    1    2 1    
     2    1   72 1    
     3    1   73 1    
     4    1   74 1    
     5    2    3 2    
     6    2    4 am   BACKBONE|DICT|INTERRES
     7    4    5 1    
     8    4   75 1    
     9    5    6 1    
    10    5   35 1    
    11    5   76 1    
    12    6    7 1    
    13    6   77 1    
    14    6   78 1    
    15    7    8 1    
    16    8    9 1    
    17    8   79 1    
    18    8   80 1    
    19    9   10 ar   
    20    9   14 ar   
    21   10   11 ar   
    22   10   81 1    
    23   11   12 ar   
    24   11   71 1    
    25   12   13 ar   
    26   12   82 1    
    27   13   14 ar   
    28   13   15 1    
    29   14   83 1    
    30   15   16 1    
    31   15   84 1    
    32   15   85 1    
    33   16   17 1    
    34   17   18 1    
    35   17   86 1    
    36   17   87 1    
    37   18   19 1    
    38   18   37 1    
    39   18   88 1    
    40   19   20 am   BACKBONE|DICT|INTERRES
    41   19   89 1    
    42   20   21 2    
    43   20   22 1    
    44   22   23 1    
    45   22   24 1    
    46   22   90 1    
    47   23   91 1    
    48   23   92 1    
    49   23   93 1    
    50   24   25 am   BACKBONE|DICT|INTERRES
    51   24   94 1    
    52   25   26 2    
    53   25   27 1    
    54   27   28 1    
    55   27   29 1    
    56   27   95 1    
    57   28   96 1    
    58   28   97 1    
    59   28   98 1    
    60   29   30 am   BACKBONE|DICT|INTERRES
    61   29   99 1    
    62   30   31 2    
    63   30   32 1    
    64   32   33 1    
    65   32   34 1    
    66   32  100 1    
    67   33  101 1    
    68   33  102 1    
    69   33  103 1    
    70   34   35 am   BACKBONE|DICT|INTERRES
    71   34  104 1    
    72   35   36 2    
    73   37   38 2    
    74   37   39 am   BACKBONE|DICT|INTERRES
    75   39   40 1    
    76   39  105 1    
    77   40   41 1    
    78   40   42 1    
    79   40  106 1    
    80   41  107 1    
    81   41  108 1    
    82   41  109 1    
    83   42   43 2    
    84   42   44 am   BACKBONE|DICT|INTERRES
    85   44   45 1    
    86   44  110 1    
    87   45   46 1    
    88   45   47 1    
    89   45  111 1    
    90   46  112 1    
    91   46  113 1    
    92   46  114 1    
    93   47   48 2    
    94   47   49 am   BACKBONE|DICT|INTERRES
    95   49   50 1    
    96   49  115 1    
    97   50   51 1    
    98   50   52 1    
    99   50  116 1    
   100   51  117 1    
   101   51  118 1    
   102   51  119 1    
   103   52   53 2    
   104   52   54 am   BACKBONE|DICT|INTERRES
   105   54   55 1    
   106   54  120 1    
   107   55   56 1    
   108   55   57 1    
   109   55  121 1    
   110   56  122 1    
   111   56  123 1    
   112   56  124 1    
   113   57   58 2    
   114   57   59 am   BACKBONE|DICT|INTERRES
   115   59   60 1    
   116   59  125 1    
   117   60   61 1    
   118   60   62 1    
   119   60  126 1    
   120   61  127 1    
   121   61  128 1    
   122   61  129 1    
   123   62   63 2    
   124   62   64 am   BACKBONE|DICT|INTERRES
   125   64   65 1    
   126   64  130 1    
   127   65   66 1    
   128   65   69 1    
   129   65  131 1    
   130   66   67 am   BACKBONE|DICT|INTERRES
   131   66   68 2    
   132   67  132 1    
   133   67  133 1    
   134   69   70 1    
   135   69  134 1    
   136   69  135 1    
   137   70   71 1    
   138   71  136 1    
   139   71  137 1    
@<TRIPOS>SUBSTRUCTURE
     1 UNK         1 GROUP             0       ****    0 ROOT    
