@<TRIPOS>MOLECULE
3R137
137   139    1
SMALL
USER_CHARGES


@<TRIPOS>ATOM
      1 CA         24.3240   -0.3489    0.7928 C.3       0 UNK        -0.2020 
      2 C          25.6972   -0.2413    0.1480 C.2       0 UNK         0.4855 
      3 O          26.0043    0.7770   -0.4724 O.2       0 UNK        -0.5197 
      4 N          26.5285   -1.2835    0.2827 N.am      1 UNK        -0.4892 
      5 CA         27.8475   -1.3771   -0.3528 C.3       1 UNK         0.0835 
      6 C6         28.6673   -2.5583    0.2216 C.3       12 UNK        -0.0855 
      7 S7         30.4503   -2.4495   -0.1707 S.3       12 UNK        -0.2931 
      8 C8         30.7900   -4.0712   -0.9322 C.3       12 UNK         0.0378 
      9 C9         30.3695   -4.1333   -2.3954 C.ar      12 UNK        -0.0802 
     10 C10        31.2833   -3.8281   -3.4077 C.ar      12 UNK        -0.0944 
     11 C11        30.9170   -3.9194   -4.7577 C.ar      12 UNK        -0.0787 
     12 C12        29.6159   -4.3229   -5.0822 C.ar      12 UNK        -0.0862 
     13 C13        28.6845   -4.6282   -4.0782 C.ar      12 UNK        -0.0733 
     14 C14        29.0793   -4.5373   -2.7414 C.ar      12 UNK        -0.0832 
     15 C15        27.2405   -5.0525   -4.3551 C.3       12 UNK         0.0240 
     16 S16        26.8467   -5.5518   -6.0645 S.3       12 UNK        -0.2522 
     17 C17        26.6145   -3.9516   -6.9060 C.3       12 UNK        -0.0967 
     18 CA         25.1313   -3.4933   -6.8838 C.3       5 UNK         0.0660 
     19 N          24.7878   -2.8969   -5.5894 N.am      5 UNK        -0.4015 
     20 C          23.5629   -2.8598   -5.0493 C.2       4 UNK         0.4946 
     21 O          22.5806   -3.4250   -5.5301 O.2       4 UNK        -0.5353 
     22 CA         23.4010   -2.0074   -3.7771 C.3       4 UNK         0.0277 
     23 CB         23.5471   -2.8771   -2.5179 C.3       4 UNK        -0.1981 
     24 N          24.3483   -0.8850   -3.7252 N.am      4 UNK        -0.4209 
     25 C          24.2735    0.1930   -4.5250 C.2       3 UNK         0.4942 
     26 O          23.3839    0.3523   -5.3594 O.2       3 UNK        -0.5208 
     27 CA         25.3941    1.2443   -4.4389 C.3       3 UNK         0.0250 
     28 CB         24.9890    2.3968   -3.5080 C.3       3 UNK        -0.1990 
     29 N          26.6709    0.6810   -4.0019 N.am      3 UNK        -0.4232 
     30 C          27.4214   -0.1480   -4.7405 C.2       2 UNK         0.4993 
     31 O          27.1587   -0.4454   -5.9079 O.2       2 UNK        -0.5286 
     32 CA         28.6607   -0.7656   -4.0732 C.3       2 UNK         0.0209 
     33 CB         29.9316   -0.0316   -4.5117 C.3       2 UNK        -0.1931 
     34 N          28.6166   -0.8018   -2.6094 N.am      2 UNK        -0.4546 
     35 C          27.7013   -1.4576   -1.8861 C.2       1 UNK         0.5154 
     36 O          26.7615   -2.0832   -2.3841 O.2       1 UNK        -0.5181 
     37 C          24.8462   -2.5262   -8.0550 C.2       5 UNK         0.5014 
     38 O          24.9511   -2.9495   -9.2069 O.2       5 UNK        -0.5248 
     39 N          24.5363   -1.2521   -7.7579 N.am      6 UNK        -0.4434 
     40 CA         24.4196   -0.1200   -8.6866 C.3       6 UNK         0.0363 
     41 CB         23.2326   -0.3099   -9.6547 C.3       6 UNK        -0.1936 
     42 C          25.7414    0.2063   -9.4141 C.2       6 UNK         0.5081 
     43 O          25.7159    0.8096  -10.4879 O.2       6 UNK        -0.5248 
     44 N          26.8726   -0.1898   -8.8151 N.am      7 UNK        -0.4718 
     45 CA         28.2192    0.0692   -9.3170 C.3       7 UNK         0.0273 
     46 CB         29.1577   -1.0686   -8.8761 C.3       7 UNK        -0.1935 
     47 C          28.7296    1.4194   -8.8061 C.2       7 UNK         0.5018 
     48 O          29.2872    2.1922   -9.5864 O.2       7 UNK        -0.5186 
     49 N          28.5291    1.6721   -7.5029 N.am      8 UNK        -0.4240 
     50 CA         28.9820    2.8498   -6.7551 C.3       8 UNK         0.0235 
     51 CB         28.0757    4.0591   -7.0770 C.3       8 UNK        -0.2000 
     52 C          30.4883    3.1034   -6.9733 C.2       8 UNK         0.4941 
     53 O          31.3003    2.2607   -6.5898 O.2       8 UNK        -0.5273 
     54 N          30.8312    4.2138   -7.6392 N.am      9 UNK        -0.4262 
     55 CA         32.1956    4.5982   -8.0099 C.3       9 UNK         0.0264 
     56 CB         32.1702    6.0199   -8.5957 C.3       9 UNK        -0.1955 
     57 C          32.9061    3.6301   -8.9785 C.2       9 UNK         0.5031 
     58 O          34.1337    3.6866   -9.0659 O.2       9 UNK        -0.5390 
     59 N          32.1584    2.7675   -9.6863 N.am      10 UNK        -0.4204 
     60 CA         32.7195    1.7442  -10.5747 C.3       10 UNK         0.0237 
     61 CB         31.6483    1.2664  -11.5692 C.3       10 UNK        -0.1985 
     62 C          33.3286    0.5468   -9.8216 C.2       10 UNK         0.4970 
     63 O          34.1220   -0.1799  -10.4213 O.2       10 UNK        -0.4914 
     64 N          32.9617    0.3473   -8.5465 N.am      11 UNK        -0.4285 
     65 CA         33.5708   -0.6622   -7.6717 C.3       11 UNK         0.1007 
     66 C          35.0072   -0.2336   -7.2578 C.2       11 UNK         0.5703 
     67 N          35.9966   -1.0989   -7.4362 N.am      11 UNK        -0.7361 
     68 O          35.2235    0.8668   -6.7537 O.2       11 UNK        -0.4986 
     69 C69        32.6629   -0.9530   -6.4495 C.3       12 UNK        -0.0947 
     70 S70        33.2015   -2.4178   -5.5011 S.3       12 UNK        -0.2240 
     71 C71        31.9240   -3.6683   -5.8828 C.3       12 UNK         0.0194 
     72 H72        24.2095    0.4161    1.5602 H         1 UNK         0.0906 
     73 H73        23.5465   -0.1991    0.0440 H         1 UNK         0.0906 
     74 H74        24.1653   -1.3226    1.2559 H         1 UNK         0.0906 
     75 H75        26.2159   -2.1078    0.7755 H         1 UNK         0.3140 
     76 H76        28.3751   -0.4511   -0.1115 H         1 UNK         0.1085 
     77 H77        28.2524   -3.5149   -0.0961 H         1 UNK         0.0836 
     78 H78        28.5916   -2.5575    1.3103 H         1 UNK         0.0836 
     79 H79        30.2985   -4.8594   -0.3596 H         1 UNK         0.0731 
     80 H80        31.8598   -4.2708   -0.8525 H         1 UNK         0.0731 
     81 H81        32.2890   -3.5399   -3.1364 H         1 UNK         0.1312 
     82 H82        29.3422   -4.4064   -6.1237 H         1 UNK         0.1406 
     83 H83        28.3697   -4.7844   -1.9646 H         1 UNK         0.1631 
     84 H84        26.5710   -4.2512   -4.0449 H         1 UNK         0.0717 
     85 H85        27.0033   -5.9041   -3.7157 H         1 UNK         0.0717 
     86 H86        27.2706   -3.1922   -6.4770 H         1 UNK         0.0934 
     87 H87        26.9677   -4.1004   -7.9288 H         1 UNK         0.0934 
     88 H88        24.4939   -4.3644   -7.0518 H         1 UNK         0.0739 
     89 H89        25.5311   -2.4055   -5.1142 H         1 UNK         0.3093 
     90 H90        22.3901   -1.5935   -3.7848 H         1 UNK         0.0818 
     91 H91        24.5134   -3.3802   -2.4788 H         1 UNK         0.0819 
     92 H92        23.4387   -2.2857   -1.6091 H         1 UNK         0.0819 
     93 H93        22.7802   -3.6524   -2.4930 H         1 UNK         0.0819 
     94 H94        25.1379   -0.9874   -3.0958 H         1 UNK         0.3041 
     95 H95        25.5349    1.6554   -5.4413 H         1 UNK         0.0784 
     96 H96        24.0686    2.8699   -3.8532 H         1 UNK         0.0793 
     97 H97        24.8136    2.0524   -2.4885 H         1 UNK         0.0793 
     98 H98        25.7568    3.1700   -3.4749 H         1 UNK         0.0793 
     99 H99        26.9505    0.8684   -3.0484 H         1 UNK         0.3024 
    100 H100       28.7208   -1.7951   -4.4259 H         1 UNK         0.1171 
    101 H101       30.8231   -0.5535   -4.1634 H         1 UNK         0.0786 
    102 H102       29.9930    0.0261   -5.5979 H         1 UNK         0.0786 
    103 H103       29.9684    0.9885   -4.1285 H         1 UNK         0.0786 
    104 H104       29.3703   -0.3347   -2.1254 H         1 UNK         0.2977 
    105 H105       24.4244   -1.0055   -6.7832 H         1 UNK         0.3127 
    106 H106       24.1998    0.7516   -8.0682 H         1 UNK         0.0770 
    107 H107       23.4139   -1.1143  -10.3678 H         1 UNK         0.0814 
    108 H108       23.0501    0.5976  -10.2314 H         1 UNK         0.0814 
    109 H109       22.3139   -0.5389   -9.1149 H         1 UNK         0.0814 
    110 H110       26.8047   -0.6107   -7.8946 H         1 UNK         0.2983 
    111 H111       28.2065    0.1015  -10.4089 H         1 UNK         0.0947 
    112 H112       30.1779   -0.8919   -9.2193 H         1 UNK         0.0806 
    113 H113       28.8380   -2.0243   -9.2918 H         1 UNK         0.0806 
    114 H114       29.1926   -1.1743   -7.7911 H         1 UNK         0.0806 
    115 H115       28.0600    0.9548   -6.9596 H         1 UNK         0.3000 
    116 H116       28.8613    2.6199   -5.6959 H         1 UNK         0.0850 
    117 H117       28.3716    4.9407   -6.5066 H         1 UNK         0.0810 
    118 H118       27.0398    3.8456   -6.8127 H         1 UNK         0.0810 
    119 H119       28.0925    4.3202   -8.1359 H         1 UNK         0.0810 
    120 H120       30.0902    4.8241   -7.9524 H         1 UNK         0.3040 
    121 H121       32.7877    4.6179   -7.0925 H         1 UNK         0.0766 
    122 H122       31.7627    6.7373   -7.8830 H         1 UNK         0.0812 
    123 H123       31.5712    6.0704   -9.5059 H         1 UNK         0.0812 
    124 H124       33.1765    6.3565   -8.8495 H         1 UNK         0.0812 
    125 H125       31.1469    2.7680   -9.5733 H         1 UNK         0.3205 
    126 H126       33.5234    2.2045  -11.1533 H         1 UNK         0.0754 
    127 H127       32.0867    0.6159  -12.3271 H         1 UNK         0.0769 
    128 H128       31.1842    2.1039  -12.0904 H         1 UNK         0.0769 
    129 H129       30.8603    0.6977  -11.0765 H         1 UNK         0.0769 
    130 H130       32.3590    1.0222   -8.0914 H         1 UNK         0.2981 
    131 H131       33.6388   -1.5872   -8.2487 H         1 UNK         0.0541 
    132 H132       35.8257   -2.0075   -7.8376 H         1 UNK         0.3459 
    133 H133       36.9310   -0.8390   -7.1625 H         1 UNK         0.3459 
    134 H134       32.6397   -0.0929   -5.7781 H         1 UNK         0.0612 
    135 H135       31.6362   -1.1068   -6.7812 H         1 UNK         0.0612 
    136 H136       32.4323   -4.6110   -6.0882 H         1 UNK         0.0624 
    137 H137       31.4098   -3.3969   -6.8059 H         1 UNK         0.0624 
@<TRIPOS>BOND
     1    1    2 1    
     2    1   72 1    
     3    1   73 1    
     4    1   74 1    
     5    2    3 2    
     6    2    4 am   BACKBONE|DICT|INTERRES
     7    4    5 1    
     8    4   75 1    
     9    5    6 1    
    10    5   35 1    
    11    5   76 1    
    12    6    7 1    
    13    6   77 1    
    14    6   78 1    
    15    7    8 1    
    16    8    9 1    
    17    8   79 1    
    18    8   80 1    
    19    9   10 ar   
    20    9   14 ar   
    21   10   11 ar   
    22   10   81 1    
    23   11   12 ar   
    24   11   71 1    
    25   12   13 ar   
    26   12   82 1    
    27   13   14 ar   
    28   13   15 1    
    29   14   83 1    
    30   15   16 1    
    31   15   84 1    
    32   15   85 1    
    33   16   17 1    
    34   17   18 1    
    35   17   86 1    
    36   17   87 1    
    37   18   19 1    
    38   18   37 1    
    39   18   88 1    
    40   19   20 am   BACKBONE|DICT|INTERRES
    41   19   89 1    
    42   20   21 2    
    43   20   22 1    
    44   22   23 1    
    45   22   24 1    
    46   22   90 1    
    47   23   91 1    
    48   23   92 1    
    49   23   93 1    
    50   24   25 am   BACKBONE|DICT|INTERRES
    51   24   94 1    
    52   25   26 2    
    53   25   27 1    
    54   27   28 1    
    55   27   29 1    
    56   27   95 1    
    57   28   96 1    
    58   28   97 1    
    59   28   98 1    
    60   29   30 am   BACKBONE|DICT|INTERRES
    61   29   99 1    
    62   30   31 2    
    63   30   32 1    
    64   32   33 1    
    65   32   34 1    
    66   32  100 1    
    67   33  101 1    
    68   33  102 1    
    69   33  103 1    
    70   34   35 am   BACKBONE|DICT|INTERRES
    71   34  104 1    
    72   35   36 2    
    73   37   38 2    
    74   37   39 am   BACKBONE|DICT|INTERRES
    75   39   40 1    
    76   39  105 1    
    77   40   41 1    
    78   40   42 1    
    79   40  106 1    
    80   41  107 1    
    81   41  108 1    
    82   41  109 1    
    83   42   43 2    
    84   42   44 am   BACKBONE|DICT|INTERRES
    85   44   45 1    
    86   44  110 1    
    87   45   46 1    
    88   45   47 1    
    89   45  111 1    
    90   46  112 1    
    91   46  113 1    
    92   46  114 1    
    93   47   48 2    
    94   47   49 am   BACKBONE|DICT|INTERRES
    95   49   50 1    
    96   49  115 1    
    97   50   51 1    
    98   50   52 1    
    99   50  116 1    
   100   51  117 1    
   101   51  118 1    
   102   51  119 1    
   103   52   53 2    
   104   52   54 am   BACKBONE|DICT|INTERRES
   105   54   55 1    
   106   54  120 1    
   107   55   56 1    
   108   55   57 1    
   109   55  121 1    
   110   56  122 1    
   111   56  123 1    
   112   56  124 1    
   113   57   58 2    
   114   57   59 am   BACKBONE|DICT|INTERRES
   115   59   60 1    
   116   59  125 1    
   117   60   61 1    
   118   60   62 1    
   119   60  126 1    
   120   61  127 1    
   121   61  128 1    
   122   61  129 1    
   123   62   63 2    
   124   62   64 am   BACKBONE|DICT|INTERRES
   125   64   65 1    
   126   64  130 1    
   127   65   66 1    
   128   65   69 1    
   129   65  131 1    
   130   66   67 am   BACKBONE|DICT|INTERRES
   131   66   68 2    
   132   67  132 1    
   133   67  133 1    
   134   69   70 1    
   135   69  134 1    
   136   69  135 1    
   137   70   71 1    
   138   71  136 1    
   139   71  137 1    
@<TRIPOS>SUBSTRUCTURE
     1 UNK         1 GROUP             0       ****    0 ROOT    
