@<TRIPOS>MOLECULE
3R137
137   139    1
SMALL
USER_CHARGES


@<TRIPOS>ATOM
      1 CA         23.4191   -3.8874   -3.5337 C.3       0 UNK        -0.2020 
      2 C          24.7191   -3.3501   -2.9556 C.2       0 UNK         0.4855 
      3 O          25.3080   -2.4359   -3.5380 O.2       0 UNK        -0.5197 
      4 N          25.1715   -3.9118   -1.8254 N.am      1 UNK        -0.4892 
      5 CA         26.3790   -3.5189   -1.0877 C.3       1 UNK         0.0835 
      6 C6         27.6743   -3.8076   -1.8978 C.3       12 UNK        -0.0855 
      7 S7         29.1649   -3.8745   -0.8489 S.3       12 UNK        -0.2931 
      8 C8         30.2247   -5.0061   -1.8034 C.3       12 UNK         0.0378 
      9 C9         30.5865   -4.4236   -3.1620 C.ar      12 UNK        -0.0802 
     10 C10        31.5857   -3.4507   -3.2636 C.ar      12 UNK        -0.0944 
     11 C11        31.9318   -2.9165   -4.5078 C.ar      12 UNK        -0.0787 
     12 C12        31.2566   -3.3568   -5.6498 C.ar      12 UNK        -0.0862 
     13 C13        30.2397   -4.3140   -5.5660 C.ar      12 UNK        -0.0733 
     14 C14        29.9256   -4.8592   -4.3155 C.ar      12 UNK        -0.0832 
     15 C15        29.5393   -4.7574   -6.8521 C.3       12 UNK         0.0240 
     16 S16        27.8089   -5.3309   -6.6823 S.3       12 UNK        -0.2522 
     17 C17        26.9465   -3.9444   -5.8670 C.3       12 UNK        -0.0967 
     18 CA         26.5462   -2.7854   -6.8193 C.3       5 UNK         0.0660 
     19 N          25.2855   -2.1464   -6.4241 N.am      5 UNK        -0.4015 
     20 C          24.5946   -1.3046   -7.2079 C.2       4 UNK         0.4946 
     21 O          24.9274   -1.0146   -8.3573 O.2       4 UNK        -0.5353 
     22 CA         23.3273   -0.6554   -6.6223 C.3       4 UNK         0.0277 
     23 CB         22.1081   -1.5599   -6.8645 C.3       4 UNK        -0.1981 
     24 N          23.3907   -0.3007   -5.2000 N.am      4 UNK        -0.4209 
     25 C          24.3170    0.4759   -4.6207 C.2       3 UNK         0.4942 
     26 O          25.3085    0.9085   -5.2070 O.2       3 UNK        -0.5208 
     27 CA         24.1238    0.8337   -3.1410 C.3       3 UNK         0.0250 
     28 CB         22.8351    0.2769   -2.4990 C.3       3 UNK        -0.1990 
     29 N          25.2845    0.3480   -2.4052 N.am      3 UNK        -0.4232 
     30 C          25.9085    0.9922   -1.4108 C.2       2 UNK         0.4993 
     31 O          25.5698    2.1054   -1.0044 O.2       2 UNK        -0.5286 
     32 CA         27.1212    0.2844   -0.7646 C.3       2 UNK         0.0209 
     33 CB         27.2765    0.6235    0.7336 C.3       2 UNK        -0.1931 
     34 N          27.1417   -1.1707   -0.9783 N.am      2 UNK        -0.4546 
     35 C          26.2288   -2.0681   -0.5735 C.2       1 UNK         0.5154 
     36 O          25.2621   -1.7911    0.1401 O.2       1 UNK        -0.5181 
     37 C          27.6628   -1.7328   -6.9063 C.2       5 UNK         0.5014 
     38 O          28.3540   -1.6489   -7.9216 O.2       5 UNK        -0.5248 
     39 N          27.7889   -0.9268   -5.8434 N.am      6 UNK        -0.4434 
     40 CA         28.7995    0.1193   -5.7200 C.3       6 UNK         0.0363 
     41 CB         28.8168    0.6615   -4.2832 C.3       6 UNK        -0.1936 
     42 C          28.6207    1.2494   -6.7421 C.2       6 UNK         0.5081 
     43 O          29.6112    1.7088   -7.3097 O.2       6 UNK        -0.5248 
     44 N          27.3647    1.6430   -6.9897 N.am      7 UNK        -0.4718 
     45 CA         26.9780    2.6271   -8.0015 C.3       7 UNK         0.0273 
     46 CB         25.4798    2.9403   -7.8614 C.3       7 UNK        -0.1935 
     47 C          27.3046    2.1776   -9.4353 C.2       7 UNK         0.5018 
     48 O          27.7212    3.0086  -10.2430 O.2       7 UNK        -0.5186 
     49 N          27.1243    0.8802   -9.7225 N.am      8 UNK        -0.4240 
     50 CA         27.4809    0.2695  -11.0032 C.3       8 UNK         0.0235 
     51 CB         26.7699   -1.0857  -11.1497 C.3       8 UNK        -0.2000 
     52 C          29.0006    0.1098  -11.1678 C.2       8 UNK         0.4941 
     53 O          29.5261    0.4198  -12.2378 O.2       8 UNK        -0.5273 
     54 N          29.6739   -0.3813  -10.1182 N.am      9 UNK        -0.4262 
     55 CA         31.1117   -0.6546  -10.1146 C.3       9 UNK         0.0264 
     56 CB         31.4533   -1.5583   -8.9228 C.3       9 UNK        -0.1955 
     57 C          31.9902    0.6047  -10.0815 C.2       9 UNK         0.5031 
     58 O          33.0504    0.5960  -10.7085 O.2       9 UNK        -0.5390 
     59 N          31.5550    1.6343   -9.3369 N.am      10 UNK        -0.4204 
     60 CA         32.2905    2.8581   -8.9965 C.3       10 UNK         0.0237 
     61 CB         32.5651    3.7189  -10.2486 C.3       10 UNK        -0.1985 
     62 C          33.5596    2.5220   -8.1910 C.2       10 UNK         0.4970 
     63 O          34.6737    2.6763   -8.6950 O.2       10 UNK        -0.4914 
     64 N          33.3486    2.0191   -6.9661 N.am      11 UNK        -0.4285 
     65 CA         34.3839    1.4871   -6.0583 C.3       11 UNK         0.1007 
     66 C          35.5246    2.4754   -5.6730 C.2       11 UNK         0.5703 
     67 N          35.3165    3.7852   -5.7391 N.am      11 UNK        -0.7361 
     68 O          36.6134    2.0422   -5.3035 O.2       11 UNK        -0.4986 
     69 C69        33.7734    0.8770   -4.7656 C.3       12 UNK        -0.0947 
     70 S70        32.3636   -0.2425   -5.0524 S.3       12 UNK        -0.2240 
     71 C71        33.0390   -1.8742   -4.6210 C.3       12 UNK         0.0194 
     72 H72        23.5867   -4.2803   -4.5360 H         1 UNK         0.0906 
     73 H73        23.0019   -4.6875   -2.9228 H         1 UNK         0.0906 
     74 H74        22.6785   -3.0916   -3.5991 H         1 UNK         0.0906 
     75 H75        24.6196   -4.6341   -1.3831 H         1 UNK         0.3140 
     76 H76        26.3976   -4.1480   -0.1959 H         1 UNK         0.1085 
     77 H77        27.5718   -4.7774   -2.3871 H         1 UNK         0.0836 
     78 H78        27.8250   -3.0898   -2.7054 H         1 UNK         0.0836 
     79 H79        29.7246   -5.9697   -1.9131 H         1 UNK         0.0731 
     80 H80        31.1362   -5.2002   -1.2360 H         1 UNK         0.0731 
     81 H81        32.0948   -3.1136   -2.3709 H         1 UNK         0.1312 
     82 H82        31.5297   -2.9481   -6.6101 H         1 UNK         0.1406 
     83 H83        29.1606   -5.6189   -4.2357 H         1 UNK         0.1631 
     84 H84        30.1212   -5.5699   -7.2885 H         1 UNK         0.0717 
     85 H85        29.5579   -3.9518   -7.5853 H         1 UNK         0.0717 
     86 H86        26.0462   -4.3900   -5.4432 H         1 UNK         0.0934 
     87 H87        27.5179   -3.5961   -5.0062 H         1 UNK         0.0934 
     88 H88        26.3959   -3.1941   -7.8212 H         1 UNK         0.0739 
     89 H89        25.0014   -2.2660   -5.4569 H         1 UNK         0.3093 
     90 H90        23.1691    0.2758   -7.1700 H         1 UNK         0.0818 
     91 H91        21.1806   -1.0636   -6.5785 H         1 UNK         0.0819 
     92 H92        22.0191   -1.8209   -7.9202 H         1 UNK         0.0819 
     93 H93        22.1784   -2.4927   -6.3036 H         1 UNK         0.0819 
     94 H94        22.6198   -0.6120   -4.6282 H         1 UNK         0.3041 
     95 H95        24.0875    1.9242   -3.0972 H         1 UNK         0.0784 
     96 H96        21.9437    0.6239   -3.0232 H         1 UNK         0.0793 
     97 H97        22.8220   -0.8133   -2.4849 H         1 UNK         0.0793 
     98 H98        22.7433    0.6134   -1.4660 H         1 UNK         0.0793 
     99 H99        25.6191   -0.5668   -2.6890 H         1 UNK         0.3024 
    100 H100       27.9986    0.6800   -1.2784 H         1 UNK         0.1171 
    101 H101       27.4231    1.6944    0.8799 H         1 UNK         0.0786 
    102 H102       26.3956    0.3368    1.3086 H         1 UNK         0.0786 
    103 H103       28.1398    0.1188    1.1673 H         1 UNK         0.0786 
    104 H104       27.9129   -1.5204   -1.5305 H         1 UNK         0.2977 
    105 H105       27.1256   -1.0154   -5.0873 H         1 UNK         0.3127 
    106 H106       29.7588   -0.3518   -5.9276 H         1 UNK         0.0770 
    107 H107       27.8614    1.1103   -4.0091 H         1 UNK         0.0814 
    108 H108       29.5840    1.4285   -4.1684 H         1 UNK         0.0814 
    109 H109       29.0430   -0.1288   -3.5674 H         1 UNK         0.0814 
    110 H110       26.6139    1.2476   -6.4243 H         1 UNK         0.2983 
    111 H111       27.5417    3.5419   -7.8065 H         1 UNK         0.0947 
    112 H112       25.1665    3.6898   -8.5894 H         1 UNK         0.0806 
    113 H113       25.2482    3.3323   -6.8709 H         1 UNK         0.0806 
    114 H114       24.8671    2.0520   -8.0201 H         1 UNK         0.0806 
    115 H115       26.7500    0.2661   -9.0091 H         1 UNK         0.3000 
    116 H116       27.1265    0.9223  -11.8042 H         1 UNK         0.0850 
    117 H117       27.0184   -1.5572  -12.1014 H         1 UNK         0.0810 
    118 H118       25.6865   -0.9683  -11.1186 H         1 UNK         0.0810 
    119 H119       27.0508   -1.7800  -10.3568 H         1 UNK         0.0810 
    120 H120       29.1529   -0.6704   -9.2916 H         1 UNK         0.3040 
    121 H121       31.3519   -1.1997  -11.0301 H         1 UNK         0.0766 
    122 H122       31.1876   -1.0834   -7.9774 H         1 UNK         0.0812 
    123 H123       32.5205   -1.7827   -8.8897 H         1 UNK         0.0812 
    124 H124       30.9226   -2.5077   -8.9866 H         1 UNK         0.0812 
    125 H125       30.6902    1.5110   -8.8120 H         1 UNK         0.3205 
    126 H126       31.6399    3.4377   -8.3396 H         1 UNK         0.0754 
    127 H127       33.0349    4.6637   -9.9728 H         1 UNK         0.0769 
    128 H128       31.6398    3.9564  -10.7736 H         1 UNK         0.0769 
    129 H129       33.2311    3.2214  -10.9541 H         1 UNK         0.0769 
    130 H130       32.3969    1.9083   -6.6463 H         1 UNK         0.2981 
    131 H131       34.8641    0.6730   -6.6042 H         1 UNK         0.0541 
    132 H132       34.4273    4.1463   -6.0441 H         1 UNK         0.3459 
    133 H133       36.0609    4.4170   -5.4897 H         1 UNK         0.3459 
    134 H134       34.5405    0.3461   -4.1989 H         1 UNK         0.0612 
    135 H135       33.4147    1.6730   -4.1102 H         1 UNK         0.0612 
    136 H136       33.7584   -2.1795   -5.3820 H         1 UNK         0.0624 
    137 H137       33.5878   -1.8008   -3.6809 H         1 UNK         0.0624 
@<TRIPOS>BOND
     1    1    2 1    
     2    1   72 1    
     3    1   73 1    
     4    1   74 1    
     5    2    3 2    
     6    2    4 am   BACKBONE|DICT|INTERRES
     7    4    5 1    
     8    4   75 1    
     9    5    6 1    
    10    5   35 1    
    11    5   76 1    
    12    6    7 1    
    13    6   77 1    
    14    6   78 1    
    15    7    8 1    
    16    8    9 1    
    17    8   79 1    
    18    8   80 1    
    19    9   10 ar   
    20    9   14 ar   
    21   10   11 ar   
    22   10   81 1    
    23   11   12 ar   
    24   11   71 1    
    25   12   13 ar   
    26   12   82 1    
    27   13   14 ar   
    28   13   15 1    
    29   14   83 1    
    30   15   16 1    
    31   15   84 1    
    32   15   85 1    
    33   16   17 1    
    34   17   18 1    
    35   17   86 1    
    36   17   87 1    
    37   18   19 1    
    38   18   37 1    
    39   18   88 1    
    40   19   20 am   BACKBONE|DICT|INTERRES
    41   19   89 1    
    42   20   21 2    
    43   20   22 1    
    44   22   23 1    
    45   22   24 1    
    46   22   90 1    
    47   23   91 1    
    48   23   92 1    
    49   23   93 1    
    50   24   25 am   BACKBONE|DICT|INTERRES
    51   24   94 1    
    52   25   26 2    
    53   25   27 1    
    54   27   28 1    
    55   27   29 1    
    56   27   95 1    
    57   28   96 1    
    58   28   97 1    
    59   28   98 1    
    60   29   30 am   BACKBONE|DICT|INTERRES
    61   29   99 1    
    62   30   31 2    
    63   30   32 1    
    64   32   33 1    
    65   32   34 1    
    66   32  100 1    
    67   33  101 1    
    68   33  102 1    
    69   33  103 1    
    70   34   35 am   BACKBONE|DICT|INTERRES
    71   34  104 1    
    72   35   36 2    
    73   37   38 2    
    74   37   39 am   BACKBONE|DICT|INTERRES
    75   39   40 1    
    76   39  105 1    
    77   40   41 1    
    78   40   42 1    
    79   40  106 1    
    80   41  107 1    
    81   41  108 1    
    82   41  109 1    
    83   42   43 2    
    84   42   44 am   BACKBONE|DICT|INTERRES
    85   44   45 1    
    86   44  110 1    
    87   45   46 1    
    88   45   47 1    
    89   45  111 1    
    90   46  112 1    
    91   46  113 1    
    92   46  114 1    
    93   47   48 2    
    94   47   49 am   BACKBONE|DICT|INTERRES
    95   49   50 1    
    96   49  115 1    
    97   50   51 1    
    98   50   52 1    
    99   50  116 1    
   100   51  117 1    
   101   51  118 1    
   102   51  119 1    
   103   52   53 2    
   104   52   54 am   BACKBONE|DICT|INTERRES
   105   54   55 1    
   106   54  120 1    
   107   55   56 1    
   108   55   57 1    
   109   55  121 1    
   110   56  122 1    
   111   56  123 1    
   112   56  124 1    
   113   57   58 2    
   114   57   59 am   BACKBONE|DICT|INTERRES
   115   59   60 1    
   116   59  125 1    
   117   60   61 1    
   118   60   62 1    
   119   60  126 1    
   120   61  127 1    
   121   61  128 1    
   122   61  129 1    
   123   62   63 2    
   124   62   64 am   BACKBONE|DICT|INTERRES
   125   64   65 1    
   126   64  130 1    
   127   65   66 1    
   128   65   69 1    
   129   65  131 1    
   130   66   67 am   BACKBONE|DICT|INTERRES
   131   66   68 2    
   132   67  132 1    
   133   67  133 1    
   134   69   70 1    
   135   69  134 1    
   136   69  135 1    
   137   70   71 1    
   138   71  136 1    
   139   71  137 1    
@<TRIPOS>SUBSTRUCTURE
     1 UNK         1 GROUP             0       ****    0 ROOT    
