@<TRIPOS>MOLECULE
3R137
137   139    1
SMALL
USER_CHARGES


@<TRIPOS>ATOM
      1 CA         28.7485   -4.1211  -10.1881 C.3       0 UNK        -0.2020 
      2 C          28.9132   -4.7255   -8.8019 C.2       0 UNK         0.4855 
      3 O          28.7599   -5.9375   -8.6481 O.2       0 UNK        -0.5197 
      4 N          29.2292   -3.9004   -7.7933 N.am      1 UNK        -0.4892 
      5 CA         29.4148   -4.3428   -6.4018 C.3       1 UNK         0.0835 
      6 C6         30.2599   -3.3332   -5.5788 C.3       12 UNK        -0.0855 
      7 S7         31.4237   -4.1534   -4.4328 S.3       12 UNK        -0.2931 
      8 C8         30.5987   -3.9989   -2.8136 C.3       12 UNK         0.0378 
      9 C9         30.6026   -2.5686   -2.2922 C.ar      12 UNK        -0.0802 
     10 C10        31.7789   -1.9949   -1.7984 C.ar      12 UNK        -0.0944 
     11 C11        31.7882   -0.6675   -1.3559 C.ar      12 UNK        -0.0787 
     12 C12        30.6014    0.0717   -1.3717 C.ar      12 UNK        -0.0862 
     13 C13        29.4158   -0.4978   -1.8435 C.ar      12 UNK        -0.0733 
     14 C14        29.4239   -1.8188   -2.2982 C.ar      12 UNK        -0.0832 
     15 C15        28.1290    0.3147   -1.8591 C.3       12 UNK         0.0240 
     16 S16        28.1135    1.5356   -3.2113 S.3       12 UNK        -0.2522 
     17 C17        27.8322    0.4717   -4.6742 C.3       12 UNK        -0.0967 
     18 CA         26.4305    0.6116   -5.3283 C.3       5 UNK         0.0660 
     19 N          25.3426    0.5541   -4.3516 N.am      5 UNK        -0.4015 
     20 C          24.0604    0.2804   -4.6206 C.2       4 UNK         0.4946 
     21 O          23.6101    0.0726   -5.7480 O.2       4 UNK        -0.5353 
     22 CA         23.1500    0.0872   -3.4012 C.3       4 UNK         0.0277 
     23 CB         21.6704    0.3769   -3.7156 C.3       4 UNK        -0.1981 
     24 N          23.2948   -1.3101   -3.0068 N.am      4 UNK        -0.4209 
     25 C          24.0728   -1.7480   -2.0098 C.2       3 UNK         0.4942 
     26 O          24.5853   -1.0170   -1.1616 O.2       3 UNK        -0.5208 
     27 CA         24.3778   -3.2576   -2.0006 C.3       3 UNK         0.0250 
     28 CB         23.2514   -4.0377   -1.3033 C.3       3 UNK        -0.1990 
     29 N          24.6085   -3.8118   -3.3436 N.am      3 UNK        -0.4232 
     30 C          25.5958   -3.4209   -4.1641 C.2       2 UNK         0.4993 
     31 O          26.4131   -2.5470   -3.8759 O.2       2 UNK        -0.5286 
     32 CA         25.6543   -4.0814   -5.5523 C.3       2 UNK         0.0209 
     33 CB         24.6551   -3.4074   -6.5078 C.3       2 UNK        -0.1931 
     34 N          26.9942   -3.9882   -6.1385 N.am      2 UNK        -0.4546 
     35 C          28.0712   -4.6621   -5.7089 C.2       1 UNK         0.5154 
     36 O          28.0272   -5.5194   -4.8245 O.2       1 UNK        -0.5181 
     37 C          26.3109    1.8317   -6.2633 C.2       5 UNK         0.5014 
     38 O          25.6827    1.7329   -7.3188 O.2       5 UNK        -0.5248 
     39 N          26.9509    2.9466   -5.8793 N.am      6 UNK        -0.4434 
     40 CA         27.0843    4.1971   -6.6337 C.3       6 UNK         0.0363 
     41 CB         25.7457    4.9701   -6.6328 C.3       6 UNK        -0.1936 
     42 C          27.6635    3.9391   -8.0388 C.2       6 UNK         0.5081 
     43 O          28.8467    3.6160   -8.1520 O.2       6 UNK        -0.5248 
     44 N          26.8150    4.0352   -9.0710 N.am      7 UNK        -0.4718 
     45 CA         27.1401    3.7491  -10.4693 C.3       7 UNK         0.0273 
     46 CB         25.9615    4.1801  -11.3567 C.3       7 UNK        -0.1935 
     47 C          27.5132    2.2808  -10.7488 C.2       7 UNK         0.5018 
     48 O          28.2010    2.0275  -11.7395 O.2       7 UNK        -0.5186 
     49 N          27.0947    1.3380   -9.8883 N.am      8 UNK        -0.4240 
     50 CA         27.4312   -0.0877   -9.9831 C.3       8 UNK         0.0235 
     51 CB         26.3790   -0.9233   -9.2315 C.3       8 UNK        -0.2000 
     52 C          28.8700   -0.3711   -9.5061 C.2       8 UNK         0.4941 
     53 O          29.0709   -1.1158   -8.5442 O.2       8 UNK        -0.5273 
     54 N          29.8388    0.2305  -10.2101 N.am      9 UNK        -0.4262 
     55 CA         31.2945    0.0887  -10.0809 C.3       9 UNK         0.0264 
     56 CB         31.7248   -1.3658  -10.3709 C.3       9 UNK        -0.1955 
     57 C          31.8966    0.6062   -8.7595 C.2       9 UNK         0.5031 
     58 O          33.0608    0.3049   -8.4876 O.2       9 UNK        -0.5390 
     59 N          31.1317    1.3749   -7.9675 N.am      10 UNK        -0.4204 
     60 CA         31.4757    1.8509   -6.6211 C.3       10 UNK         0.0237 
     61 CB         32.5398    2.9701   -6.6912 C.3       10 UNK        -0.1985 
     62 C          31.8476    0.6681   -5.7036 C.2       10 UNK         0.4970 
     63 O          30.9995   -0.1963   -5.4952 O.2       10 UNK        -0.4914 
     64 N          33.0910    0.6262   -5.2109 N.am      11 UNK        -0.4285 
     65 CA         33.6402   -0.5072   -4.4496 C.3       11 UNK         0.1007 
     66 C          34.3243   -1.5940   -5.3312 C.2       11 UNK         0.5703 
     67 N          34.3114   -1.5029   -6.6558 N.am      11 UNK        -0.7361 
     68 O          34.8860   -2.5502   -4.8020 O.2       11 UNK        -0.4986 
     69 C69        34.5647   -0.0435   -3.2904 C.3       12 UNK        -0.0947 
     70 S70        33.7645    1.1144   -2.1281 S.3       12 UNK        -0.2240 
     71 C71        33.0772   -0.0173   -0.8751 C.3       12 UNK         0.0194 
     72 H72        27.6934   -3.9654  -10.4097 H         1 UNK         0.0906 
     73 H73        29.1584   -4.7922  -10.9424 H         1 UNK         0.0906 
     74 H74        29.2673   -3.1692  -10.2788 H         1 UNK         0.0906 
     75 H75        29.3085   -2.8986   -7.9693 H         1 UNK         0.3140 
     76 H76        29.9660   -5.2852   -6.4480 H         1 UNK         0.1085 
     77 H77        29.6396   -2.6059   -5.0515 H         1 UNK         0.0836 
     78 H78        30.8814   -2.7390   -6.2509 H         1 UNK         0.0836 
     79 H79        29.5808   -4.3847   -2.8858 H         1 UNK         0.0731 
     80 H80        31.1143   -4.6395   -2.0969 H         1 UNK         0.0731 
     81 H81        32.6940   -2.5713   -1.7958 H         1 UNK         0.1312 
     82 H82        30.6043    1.0990   -1.0336 H         1 UNK         0.1406 
     83 H83        28.5122   -2.2642   -2.6665 H         1 UNK         0.1631 
     84 H84        28.0242    0.8402   -0.9089 H         1 UNK         0.0717 
     85 H85        27.2583   -0.3379   -1.9442 H         1 UNK         0.0717 
     86 H86        28.6120    0.6758   -5.4087 H         1 UNK         0.0934 
     87 H87        27.9933   -0.5681   -4.3930 H         1 UNK         0.0934 
     88 H88        26.3108   -0.2662   -5.9646 H         1 UNK         0.0739 
     89 H89        25.6208    0.6747   -3.3887 H         1 UNK         0.3093 
     90 H90        23.4708    0.7617   -2.6040 H         1 UNK         0.0818 
     91 H91        21.5406    1.4041   -4.0585 H         1 UNK         0.0819 
     92 H92        21.2797   -0.2792   -4.4946 H         1 UNK         0.0819 
     93 H93        21.0479    0.2487   -2.8301 H         1 UNK         0.0819 
     94 H94        22.9541   -1.9904   -3.6709 H         1 UNK         0.3041 
     95 H95        25.2961   -3.3995   -1.4265 H         1 UNK         0.0784 
     96 H96        23.0762   -3.6528   -0.2975 H         1 UNK         0.0793 
     97 H97        22.3092   -3.9656   -1.8481 H         1 UNK         0.0793 
     98 H98        23.5026   -5.0939   -1.2037 H         1 UNK         0.0793 
     99 H99        23.9729   -4.5344   -3.6508 H         1 UNK         0.3024 
    100 H100       25.3975   -5.1380   -5.4474 H         1 UNK         0.1171 
    101 H101       23.6339   -3.4886   -6.1337 H         1 UNK         0.0786 
    102 H102       24.8700   -2.3451   -6.6330 H         1 UNK         0.0786 
    103 H103       24.6737   -3.8709   -7.4944 H         1 UNK         0.0786 
    104 H104       27.1317   -3.2943   -6.8578 H         1 UNK         0.2977 
    105 H105       27.4619    2.9024   -5.0057 H         1 UNK         0.3127 
    106 H106       27.8202    4.8069   -6.1072 H         1 UNK         0.0770 
    107 H107       24.9307    4.3943   -7.0725 H         1 UNK         0.0814 
    108 H108       25.8304    5.9067   -7.1858 H         1 UNK         0.0814 
    109 H109       25.4485    5.2279   -5.6162 H         1 UNK         0.0814 
    110 H110       25.8518    4.2612   -8.8682 H         1 UNK         0.2983 
    111 H111       28.0093    4.3544  -10.7356 H         1 UNK         0.0947 
    112 H112       25.0538    3.6232  -11.1205 H         1 UNK         0.0806 
    113 H113       26.1833    4.0092  -12.4112 H         1 UNK         0.0806 
    114 H114       25.7448    5.2424  -11.2424 H         1 UNK         0.0806 
    115 H115       26.5542    1.6222   -9.0746 H         1 UNK         0.3000 
    116 H116       27.3811   -0.3837  -11.0334 H         1 UNK         0.0850 
    117 H117       26.5559   -1.9903   -9.3677 H         1 UNK         0.0810 
    118 H118       25.3717   -0.7133   -9.5912 H         1 UNK         0.0810 
    119 H119       26.3978   -0.7281   -8.1619 H         1 UNK         0.0810 
    120 H120       29.5263    0.8573  -10.9483 H         1 UNK         0.3040 
    121 H121       31.7207    0.7179  -10.8635 H         1 UNK         0.0766 
    122 H122       31.4200   -2.0430   -9.5723 H         1 UNK         0.0812 
    123 H123       32.8090   -1.4435  -10.4608 H         1 UNK         0.0812 
    124 H124       31.2988   -1.7302  -11.3056 H         1 UNK         0.0812 
    125 H125       30.1911    1.5845   -8.2737 H         1 UNK         0.3205 
    126 H126       30.5657    2.2853   -6.2042 H         1 UNK         0.0754 
    127 H127       32.7593    3.3686   -5.6997 H         1 UNK         0.0769 
    128 H128       32.1819    3.8039   -7.2957 H         1 UNK         0.0769 
    129 H129       33.4771    2.6271   -7.1306 H         1 UNK         0.0769 
    130 H130       33.7405    1.3577   -5.4557 H         1 UNK         0.2981 
    131 H131       32.8049   -1.0347   -3.9952 H         1 UNK         0.0541 
    132 H132       34.7636   -2.2230   -7.1945 H         1 UNK         0.3459 
    133 H133       33.8388   -0.7426   -7.1387 H         1 UNK         0.3459 
    134 H134       35.4502    0.4495   -3.6946 H         1 UNK         0.0612 
    135 H135       34.9315   -0.8995   -2.7216 H         1 UNK         0.0612 
    136 H136       33.8195   -0.7692   -0.6035 H         1 UNK         0.0624 
    137 H137       32.8740    0.5511    0.0336 H         1 UNK         0.0624 
@<TRIPOS>BOND
     1    1    2 1    
     2    1   72 1    
     3    1   73 1    
     4    1   74 1    
     5    2    3 2    
     6    2    4 am   BACKBONE|DICT|INTERRES
     7    4    5 1    
     8    4   75 1    
     9    5    6 1    
    10    5   35 1    
    11    5   76 1    
    12    6    7 1    
    13    6   77 1    
    14    6   78 1    
    15    7    8 1    
    16    8    9 1    
    17    8   79 1    
    18    8   80 1    
    19    9   10 ar   
    20    9   14 ar   
    21   10   11 ar   
    22   10   81 1    
    23   11   12 ar   
    24   11   71 1    
    25   12   13 ar   
    26   12   82 1    
    27   13   14 ar   
    28   13   15 1    
    29   14   83 1    
    30   15   16 1    
    31   15   84 1    
    32   15   85 1    
    33   16   17 1    
    34   17   18 1    
    35   17   86 1    
    36   17   87 1    
    37   18   19 1    
    38   18   37 1    
    39   18   88 1    
    40   19   20 am   BACKBONE|DICT|INTERRES
    41   19   89 1    
    42   20   21 2    
    43   20   22 1    
    44   22   23 1    
    45   22   24 1    
    46   22   90 1    
    47   23   91 1    
    48   23   92 1    
    49   23   93 1    
    50   24   25 am   BACKBONE|DICT|INTERRES
    51   24   94 1    
    52   25   26 2    
    53   25   27 1    
    54   27   28 1    
    55   27   29 1    
    56   27   95 1    
    57   28   96 1    
    58   28   97 1    
    59   28   98 1    
    60   29   30 am   BACKBONE|DICT|INTERRES
    61   29   99 1    
    62   30   31 2    
    63   30   32 1    
    64   32   33 1    
    65   32   34 1    
    66   32  100 1    
    67   33  101 1    
    68   33  102 1    
    69   33  103 1    
    70   34   35 am   BACKBONE|DICT|INTERRES
    71   34  104 1    
    72   35   36 2    
    73   37   38 2    
    74   37   39 am   BACKBONE|DICT|INTERRES
    75   39   40 1    
    76   39  105 1    
    77   40   41 1    
    78   40   42 1    
    79   40  106 1    
    80   41  107 1    
    81   41  108 1    
    82   41  109 1    
    83   42   43 2    
    84   42   44 am   BACKBONE|DICT|INTERRES
    85   44   45 1    
    86   44  110 1    
    87   45   46 1    
    88   45   47 1    
    89   45  111 1    
    90   46  112 1    
    91   46  113 1    
    92   46  114 1    
    93   47   48 2    
    94   47   49 am   BACKBONE|DICT|INTERRES
    95   49   50 1    
    96   49  115 1    
    97   50   51 1    
    98   50   52 1    
    99   50  116 1    
   100   51  117 1    
   101   51  118 1    
   102   51  119 1    
   103   52   53 2    
   104   52   54 am   BACKBONE|DICT|INTERRES
   105   54   55 1    
   106   54  120 1    
   107   55   56 1    
   108   55   57 1    
   109   55  121 1    
   110   56  122 1    
   111   56  123 1    
   112   56  124 1    
   113   57   58 2    
   114   57   59 am   BACKBONE|DICT|INTERRES
   115   59   60 1    
   116   59  125 1    
   117   60   61 1    
   118   60   62 1    
   119   60  126 1    
   120   61  127 1    
   121   61  128 1    
   122   61  129 1    
   123   62   63 2    
   124   62   64 am   BACKBONE|DICT|INTERRES
   125   64   65 1    
   126   64  130 1    
   127   65   66 1    
   128   65   69 1    
   129   65  131 1    
   130   66   67 am   BACKBONE|DICT|INTERRES
   131   66   68 2    
   132   67  132 1    
   133   67  133 1    
   134   69   70 1    
   135   69  134 1    
   136   69  135 1    
   137   70   71 1    
   138   71  136 1    
   139   71  137 1    
@<TRIPOS>SUBSTRUCTURE
     1 UNK         1 GROUP             0       ****    0 ROOT    
