@<TRIPOS>MOLECULE
3R137
137   139    1
SMALL
USER_CHARGES


@<TRIPOS>ATOM
      1 CA         25.0968   -1.2332   -8.9357 C.3       0 UNK        -0.2020 
      2 C          25.0506   -2.6676   -8.4314 C.2       0 UNK         0.4855 
      3 O          24.3391   -3.4979   -8.9978 O.2       0 UNK        -0.5197 
      4 N          25.8100   -2.9607   -7.3716 N.am      1 UNK        -0.4892 
      5 CA         25.8224   -4.2450   -6.6657 C.3       1 UNK         0.0835 
      6 C6         27.2080   -4.4956   -6.0117 C.3       12 UNK        -0.0855 
      7 S7         27.6963   -3.1977   -4.8241 S.3       12 UNK        -0.2931 
      8 C8         29.3847   -3.7248   -4.4017 C.3       12 UNK         0.0378 
      9 C9         30.1197   -2.6162   -3.6652 C.ar      12 UNK        -0.0802 
     10 C10        31.2330   -1.9971   -4.2408 C.ar      12 UNK        -0.0944 
     11 C11        31.8739   -0.9399   -3.5874 C.ar      12 UNK        -0.0787 
     12 C12        31.3913   -0.4980   -2.3521 C.ar      12 UNK        -0.0862 
     13 C13        30.2789   -1.1116   -1.7676 C.ar      12 UNK        -0.0733 
     14 C14        29.6624   -2.1836   -2.4179 C.ar      12 UNK        -0.0832 
     15 C15        29.7145   -0.5982   -0.4522 C.3       12 UNK         0.0240 
     16 S16        28.0457    0.1026   -0.6669 S.3       12 UNK        -0.2522 
     17 C17        28.3632    1.5020   -1.7967 C.3       12 UNK        -0.0967 
     18 CA         27.9111    1.2343   -3.2574 C.3       5 UNK         0.0660 
     19 N          26.4982    0.8344   -3.3311 N.am      5 UNK        -0.4015 
     20 C          25.7910    0.5707   -4.4385 C.2       4 UNK         0.4946 
     21 O          26.2337    0.6887   -5.5836 O.2       4 UNK        -0.5353 
     22 CA         24.3368    0.1181   -4.2152 C.3       4 UNK         0.0277 
     23 CB         23.5462   -0.0126   -5.5293 C.3       4 UNK        -0.1981 
     24 N          24.2781   -1.1543   -3.4912 N.am      4 UNK        -0.4209 
     25 C          24.3648   -1.2769   -2.1570 C.2       3 UNK         0.4942 
     26 O          24.5382   -0.3086   -1.4147 O.2       3 UNK        -0.5208 
     27 CA         24.2364   -2.6808   -1.5342 C.3       3 UNK         0.0250 
     28 CB         23.3135   -2.6822   -0.3008 C.3       3 UNK        -0.1990 
     29 N          23.7574   -3.6693   -2.5003 N.am      3 UNK        -0.4232 
     30 C          24.1968   -4.9280   -2.6078 C.2       2 UNK         0.4993 
     31 O          25.0034   -5.4466   -1.8350 O.2       2 UNK        -0.5286 
     32 CA         23.6832   -5.7392   -3.8129 C.3       2 UNK         0.0209 
     33 CB         22.1762   -5.5407   -4.0925 C.3       2 UNK        -0.1931 
     34 N          24.5023   -5.4850   -5.0069 N.am      2 UNK        -0.4546 
     35 C          24.6815   -4.3077   -5.6262 C.2       1 UNK         0.5154 
     36 O          24.0314   -3.2924   -5.3583 O.2       1 UNK        -0.5181 
     37 C          28.2543    2.4593   -4.1325 C.2       5 UNK         0.5014 
     38 O          29.3465    2.5180   -4.6939 O.2       5 UNK        -0.5248 
     39 N          27.3199    3.4156   -4.2331 N.am      6 UNK        -0.4434 
     40 CA         27.4667    4.6360   -5.0291 C.3       6 UNK         0.0363 
     41 CB         26.4316    5.6692   -4.5543 C.3       6 UNK        -0.1936 
     42 C          27.3354    4.4098   -6.5470 C.2       6 UNK         0.5081 
     43 O          27.8364    5.2334   -7.3134 O.2       6 UNK        -0.5248 
     44 N          26.6513    3.3338   -6.9596 N.am      7 UNK        -0.4718 
     45 CA         26.3851    3.0135   -8.3654 C.3       7 UNK         0.0273 
     46 CB         24.9240    2.5538   -8.4976 C.3       7 UNK        -0.1935 
     47 C          27.3312    1.9360   -8.9185 C.2       7 UNK         0.5018 
     48 O          27.4345    1.8052  -10.1390 O.2       7 UNK        -0.5186 
     49 N          27.9710    1.1636   -8.0306 N.am      8 UNK        -0.4240 
     50 CA         28.8582    0.0501   -8.3605 C.3       8 UNK         0.0235 
     51 CB         29.2442   -0.6729   -7.0611 C.3       8 UNK        -0.2000 
     52 C          30.1153    0.4982   -9.1250 C.2       8 UNK         0.4941 
     53 O          30.8552    1.3561   -8.6409 O.2       8 UNK        -0.5273 
     54 N          30.3605   -0.1271  -10.2847 N.am      9 UNK        -0.4262 
     55 CA         31.5694    0.0747  -11.0929 C.3       9 UNK         0.0264 
     56 CB         31.3156   -0.4343  -12.5211 C.3       9 UNK        -0.1955 
     57 C          32.8123   -0.6081  -10.4922 C.2       9 UNK         0.5031 
     58 O          33.9347   -0.1986  -10.7938 O.2       9 UNK        -0.5390 
     59 N          32.5917   -1.6220   -9.6411 N.am      10 UNK        -0.4204 
     60 CA         33.6116   -2.4187   -8.9509 C.3       10 UNK         0.0237 
     61 CB         32.9140   -3.5403   -8.1624 C.3       10 UNK        -0.1985 
     62 C          34.5453   -1.6156   -8.0257 C.2       10 UNK         0.4970 
     63 O          35.6309   -2.1037   -7.7092 O.2       10 UNK        -0.4914 
     64 N          34.1224   -0.4133   -7.6149 N.am      11 UNK        -0.4285 
     65 CA         34.9264    0.5300   -6.8250 C.3       11 UNK         0.1007 
     66 C          36.1011    1.1830   -7.6126 C.2       11 UNK         0.5703 
     67 N          36.1429    1.1041   -8.9391 N.am      11 UNK        -0.7361 
     68 O          36.9943    1.7685   -7.0050 O.2       11 UNK        -0.4986 
     69 C69        34.0542    1.6209   -6.1434 C.3       12 UNK        -0.0947 
     70 S70        32.5028    1.0317   -5.3834 S.3       12 UNK        -0.2240 
     71 C71        33.0672   -0.2579   -4.2358 C.3       12 UNK         0.0194 
     72 H72        25.6612   -0.5911   -8.2603 H         1 UNK         0.0906 
     73 H73        25.5647   -1.1907   -9.9188 H         1 UNK         0.0906 
     74 H74        24.0879   -0.8298   -9.0179 H         1 UNK         0.0906 
     75 H75        26.3299   -2.2278   -6.9088 H         1 UNK         0.3140 
     76 H76        25.6400   -5.0433   -7.3888 H         1 UNK         0.1085 
     77 H77        27.2397   -5.4642   -5.5096 H         1 UNK         0.0836 
     78 H78        27.9677   -4.5463   -6.7936 H         1 UNK         0.0836 
     79 H79        29.9183   -3.9989   -5.3132 H         1 UNK         0.0731 
     80 H80        29.3437   -4.6189   -3.7782 H         1 UNK         0.0731 
     81 H81        31.5907   -2.3199   -5.2082 H         1 UNK         0.1312 
     82 H82        31.8705    0.3361   -1.8580 H         1 UNK         0.1406 
     83 H83        28.7918   -2.6496   -1.9761 H         1 UNK         0.1631 
     84 H84        30.3680    0.1554   -0.0099 H         1 UNK         0.0717 
     85 H85        29.6645   -1.4208    0.2624 H         1 UNK         0.0717 
     86 H86        27.8439    2.3728   -1.3914 H         1 UNK         0.0934 
     87 H87        29.4261    1.7503   -1.7659 H         1 UNK         0.0934 
     88 H88        28.4904    0.3949   -3.6487 H         1 UNK         0.0739 
     89 H89        26.0436    0.6582   -2.4405 H         1 UNK         0.3093 
     90 H90        23.8448    0.8896   -3.6189 H         1 UNK         0.0818 
     91 H91        23.4881    0.9460   -6.0444 H         1 UNK         0.0819 
     92 H92        24.0092   -0.7264   -6.2100 H         1 UNK         0.0819 
     93 H93        22.5236   -0.3426   -5.3467 H         1 UNK         0.0819 
     94 H94        24.2200   -1.9862   -4.0759 H         1 UNK         0.3041 
     95 H95        25.2441   -2.9516   -1.2114 H         1 UNK         0.0784 
     96 H96        23.6704   -1.9876    0.4608 H         1 UNK         0.0793 
     97 H97        22.2959   -2.3893   -0.5615 H         1 UNK         0.0793 
     98 H98        23.2709   -3.6690    0.1605 H         1 UNK         0.0793 
     99 H99        23.1277   -3.3314   -3.2164 H         1 UNK         0.3024 
    100 H100       23.8264   -6.7905   -3.5562 H         1 UNK         0.1171 
    101 H101       21.8302   -6.2303   -4.8624 H         1 UNK         0.0786 
    102 H102       21.5863   -5.7385   -3.1965 H         1 UNK         0.0786 
    103 H103       21.9324   -4.5321   -4.4255 H         1 UNK         0.0786 
    104 H104       25.0917   -6.2573   -5.2859 H         1 UNK         0.2977 
    105 H105       26.4486    3.2938   -3.7378 H         1 UNK         0.3127 
    106 H106       28.4627    5.0458   -4.8468 H         1 UNK         0.0770 
    107 H107       25.4102    5.3162   -4.7025 H         1 UNK         0.0814 
    108 H108       26.5348    6.6054   -5.1048 H         1 UNK         0.0814 
    109 H109       26.5583    5.9028   -3.4971 H         1 UNK         0.0814 
    110 H110       26.3223    2.6628   -6.2741 H         1 UNK         0.2983 
    111 H111       26.5131    3.9031   -8.9862 H         1 UNK         0.0947 
    112 H112       24.6777    2.3235   -9.5351 H         1 UNK         0.0806 
    113 H113       24.2326    3.3280   -8.1647 H         1 UNK         0.0806 
    114 H114       24.7317    1.6566   -7.9104 H         1 UNK         0.0806 
    115 H115       27.7934    1.3224   -7.0471 H         1 UNK         0.3000 
    116 H116       28.2900   -0.6454   -8.9814 H         1 UNK         0.0850 
    117 H117       29.8392   -1.5644   -7.2608 H         1 UNK         0.0810 
    118 H118       28.3584   -0.9859   -6.5112 H         1 UNK         0.0810 
    119 H119       29.8263   -0.0297   -6.3993 H         1 UNK         0.0810 
    120 H120       29.6877   -0.7950  -10.6346 H         1 UNK         0.3040 
    121 H121       31.7768    1.1460  -11.1443 H         1 UNK         0.0766 
    122 H122       31.0973   -1.5028  -12.5390 H         1 UNK         0.0812 
    123 H123       32.1892   -0.2702  -13.1538 H         1 UNK         0.0812 
    124 H124       30.4794    0.0885  -12.9860 H         1 UNK         0.0812 
    125 H125       31.6321   -1.8797   -9.4673 H         1 UNK         0.3205 
    126 H126       34.2404   -2.8763   -9.7173 H         1 UNK         0.0754 
    127 H127       33.6417   -4.1675   -7.6450 H         1 UNK         0.0769 
    128 H128       32.3408   -4.1928   -8.8215 H         1 UNK         0.0769 
    129 H129       32.2340   -3.1414   -7.4092 H         1 UNK         0.0769 
    130 H130       33.2168   -0.0798   -7.9113 H         1 UNK         0.2981 
    131 H131       35.3997   -0.0473   -6.0291 H         1 UNK         0.0541 
    132 H132       35.4113    0.6312   -9.4560 H         1 UNK         0.3459 
    133 H133       36.9113    1.5291   -9.4330 H         1 UNK         0.3459 
    134 H134       33.7697    2.3815   -6.8732 H         1 UNK         0.0612 
    135 H135       34.6315    2.1396   -5.3760 H         1 UNK         0.0612 
    136 H136       33.7181    0.1849   -3.4804 H         1 UNK         0.0624 
    137 H137       33.6614   -1.0007   -4.7688 H         1 UNK         0.0624 
@<TRIPOS>BOND
     1    1    2 1    
     2    1   72 1    
     3    1   73 1    
     4    1   74 1    
     5    2    3 2    
     6    2    4 am   BACKBONE|DICT|INTERRES
     7    4    5 1    
     8    4   75 1    
     9    5    6 1    
    10    5   35 1    
    11    5   76 1    
    12    6    7 1    
    13    6   77 1    
    14    6   78 1    
    15    7    8 1    
    16    8    9 1    
    17    8   79 1    
    18    8   80 1    
    19    9   10 ar   
    20    9   14 ar   
    21   10   11 ar   
    22   10   81 1    
    23   11   12 ar   
    24   11   71 1    
    25   12   13 ar   
    26   12   82 1    
    27   13   14 ar   
    28   13   15 1    
    29   14   83 1    
    30   15   16 1    
    31   15   84 1    
    32   15   85 1    
    33   16   17 1    
    34   17   18 1    
    35   17   86 1    
    36   17   87 1    
    37   18   19 1    
    38   18   37 1    
    39   18   88 1    
    40   19   20 am   BACKBONE|DICT|INTERRES
    41   19   89 1    
    42   20   21 2    
    43   20   22 1    
    44   22   23 1    
    45   22   24 1    
    46   22   90 1    
    47   23   91 1    
    48   23   92 1    
    49   23   93 1    
    50   24   25 am   BACKBONE|DICT|INTERRES
    51   24   94 1    
    52   25   26 2    
    53   25   27 1    
    54   27   28 1    
    55   27   29 1    
    56   27   95 1    
    57   28   96 1    
    58   28   97 1    
    59   28   98 1    
    60   29   30 am   BACKBONE|DICT|INTERRES
    61   29   99 1    
    62   30   31 2    
    63   30   32 1    
    64   32   33 1    
    65   32   34 1    
    66   32  100 1    
    67   33  101 1    
    68   33  102 1    
    69   33  103 1    
    70   34   35 am   BACKBONE|DICT|INTERRES
    71   34  104 1    
    72   35   36 2    
    73   37   38 2    
    74   37   39 am   BACKBONE|DICT|INTERRES
    75   39   40 1    
    76   39  105 1    
    77   40   41 1    
    78   40   42 1    
    79   40  106 1    
    80   41  107 1    
    81   41  108 1    
    82   41  109 1    
    83   42   43 2    
    84   42   44 am   BACKBONE|DICT|INTERRES
    85   44   45 1    
    86   44  110 1    
    87   45   46 1    
    88   45   47 1    
    89   45  111 1    
    90   46  112 1    
    91   46  113 1    
    92   46  114 1    
    93   47   48 2    
    94   47   49 am   BACKBONE|DICT|INTERRES
    95   49   50 1    
    96   49  115 1    
    97   50   51 1    
    98   50   52 1    
    99   50  116 1    
   100   51  117 1    
   101   51  118 1    
   102   51  119 1    
   103   52   53 2    
   104   52   54 am   BACKBONE|DICT|INTERRES
   105   54   55 1    
   106   54  120 1    
   107   55   56 1    
   108   55   57 1    
   109   55  121 1    
   110   56  122 1    
   111   56  123 1    
   112   56  124 1    
   113   57   58 2    
   114   57   59 am   BACKBONE|DICT|INTERRES
   115   59   60 1    
   116   59  125 1    
   117   60   61 1    
   118   60   62 1    
   119   60  126 1    
   120   61  127 1    
   121   61  128 1    
   122   61  129 1    
   123   62   63 2    
   124   62   64 am   BACKBONE|DICT|INTERRES
   125   64   65 1    
   126   64  130 1    
   127   65   66 1    
   128   65   69 1    
   129   65  131 1    
   130   66   67 am   BACKBONE|DICT|INTERRES
   131   66   68 2    
   132   67  132 1    
   133   67  133 1    
   134   69   70 1    
   135   69  134 1    
   136   69  135 1    
   137   70   71 1    
   138   71  136 1    
   139   71  137 1    
@<TRIPOS>SUBSTRUCTURE
     1 UNK         1 GROUP             0       ****    0 ROOT    
