@<TRIPOS>MOLECULE
3R137
137   139    1
SMALL
USER_CHARGES


@<TRIPOS>ATOM
      1 CA         31.7577   -0.9775   -0.6203 C.3       0 UNK        -0.2020 
      2 C          30.5283   -1.5178   -1.3321 C.2       0 UNK         0.4855 
      3 O          30.2325   -1.0999   -2.4512 O.2       0 UNK        -0.5197 
      4 N          29.7923   -2.4363   -0.6912 N.am      1 UNK        -0.4892 
      5 CA         28.6245   -3.1287   -1.2522 C.3       1 UNK         0.0835 
      6 C6         28.3632   -4.5000   -0.5620 C.3       12 UNK        -0.0855 
      7 S7         29.6264   -5.8371   -0.5912 S.3       12 UNK        -0.2931 
      8 C8         31.1768   -5.2218   -1.3498 C.3       12 UNK         0.0378 
      9 C9         31.1538   -4.9450   -2.8542 C.ar      12 UNK        -0.0802 
     10 C10        32.2735   -4.3327   -3.4289 C.ar      12 UNK        -0.0944 
     11 C11        32.3101   -4.0378   -4.7952 C.ar      12 UNK        -0.0787 
     12 C12        31.2081   -4.3534   -5.5928 C.ar      12 UNK        -0.0862 
     13 C13        30.0725   -4.9390   -5.0308 C.ar      12 UNK        -0.0733 
     14 C14        30.0650   -5.2692   -3.6734 C.ar      12 UNK        -0.0832 
     15 C15        28.8243   -5.1401   -5.8750 C.3       12 UNK         0.0240 
     16 S16        27.4343   -4.1283   -5.2650 S.3       12 UNK        -0.2522 
     17 C17        28.1242   -2.4320   -5.2660 C.3       12 UNK        -0.0967 
     18 CA         27.5884   -1.5647   -6.4253 C.3       5 UNK         0.0660 
     19 N          26.1253   -1.5314   -6.4690 N.am      5 UNK        -0.4015 
     20 C          25.4147   -1.1738   -7.5467 C.2       4 UNK         0.4946 
     21 O          25.9263   -0.8344   -8.6134 O.2       4 UNK        -0.5353 
     22 CA         23.8820   -1.1373   -7.4063 C.3       4 UNK         0.0277 
     23 CB         23.2791   -2.4939   -7.8021 C.3       4 UNK        -0.1981 
     24 N          23.4168   -0.7662   -6.0663 N.am      4 UNK        -0.4209 
     25 C          23.7331    0.3687   -5.4273 C.2       3 UNK         0.4942 
     26 O          24.4375    1.2514   -5.9203 O.2       3 UNK        -0.5208 
     27 CA         23.2529    0.5273   -3.9718 C.3       3 UNK         0.0250 
     28 CB         22.2521   -0.5571   -3.5097 C.3       3 UNK        -0.1990 
     29 N          24.3889    0.6030   -3.0425 N.am      3 UNK        -0.4232 
     30 C          25.3792   -0.2939   -2.9072 C.2       2 UNK         0.4993 
     31 O          25.4599   -1.3235   -3.5822 O.2       2 UNK        -0.5286 
     32 CA         26.4823    0.0597   -1.8889 C.3       2 UNK         0.0209 
     33 CB         25.9119    0.4724   -0.5135 C.3       2 UNK        -0.1931 
     34 N          27.4959   -0.9940   -1.7432 N.am      2 UNK        -0.4546 
     35 C          27.3623   -2.2232   -1.2228 C.2       1 UNK         0.5154 
     36 O          26.3199   -2.6362   -0.7094 O.2       1 UNK        -0.5181 
     37 C          28.1980   -0.1483   -6.3724 C.2       5 UNK         0.5014 
     38 O          29.3320    0.0310   -6.8150 O.2       5 UNK        -0.5248 
     39 N          27.4488    0.8418   -5.8669 N.am      6 UNK        -0.4434 
     40 CA         27.8344    2.2514   -5.9294 C.3       6 UNK         0.0363 
     41 CB         27.1946    3.0283   -4.7680 C.3       6 UNK        -0.1936 
     42 C          27.4547    2.8697   -7.2831 C.2       6 UNK         0.5081 
     43 O          28.2215    3.6723   -7.8121 O.2       6 UNK        -0.5248 
     44 N          26.2881    2.4879   -7.8197 N.am      7 UNK        -0.4718 
     45 CA         25.7600    2.9892   -9.0881 C.3       7 UNK         0.0273 
     46 CB         24.2675    2.6380   -9.1992 C.3       7 UNK        -0.1935 
     47 C          26.5341    2.4833  -10.3169 C.2       7 UNK         0.5018 
     48 O          26.9274    3.2992  -11.1518 O.2       7 UNK        -0.5186 
     49 N          26.7102    1.1588  -10.4260 N.am      8 UNK        -0.4240 
     50 CA         27.2938    0.5083  -11.6005 C.3       8 UNK         0.0235 
     51 CB         26.5462   -0.8039  -11.8971 C.3       8 UNK        -0.2000 
     52 C          28.7965    0.2576  -11.4321 C.2       8 UNK         0.4941 
     53 O          29.5753    0.6900  -12.2825 O.2       8 UNK        -0.5273 
     54 N          29.1815   -0.4512  -10.3599 N.am      9 UNK        -0.4262 
     55 CA         30.5700   -0.8734  -10.1263 C.3       9 UNK         0.0264 
     56 CB         30.5974   -2.1005   -9.1977 C.3       9 UNK        -0.1955 
     57 C          31.4834    0.2494   -9.5981 C.2       9 UNK         0.5031 
     58 O          32.7031    0.1266   -9.7184 O.2       9 UNK        -0.5390 
     59 N          30.8847    1.3130   -9.0404 N.am      10 UNK        -0.4204 
     60 CA         31.5255    2.4906   -8.4409 C.3       10 UNK         0.0237 
     61 CB         32.2933    3.3059   -9.5041 C.3       10 UNK        -0.1985 
     62 C          32.3767    2.1594   -7.1983 C.2       10 UNK         0.4970 
     63 O          33.3863    2.8230   -6.9538 O.2       10 UNK        -0.4914 
     64 N          31.9492    1.1518   -6.4280 N.am      11 UNK        -0.4285 
     65 CA         32.6177    0.6930   -5.1999 C.3       11 UNK         0.1007 
     66 C          32.2655    1.5259   -3.9334 C.2       11 UNK         0.5703 
     67 N          31.3193    2.4567   -3.9859 N.am      11 UNK        -0.7361 
     68 O          32.8890    1.3482   -2.8898 O.2       11 UNK        -0.4986 
     69 C69        32.3876   -0.8210   -4.9693 C.3       12 UNK        -0.0947 
     70 S70        33.1080   -1.8338   -6.3035 S.3       12 UNK        -0.2240 
     71 C71        33.5318   -3.3627   -5.4064 C.3       12 UNK         0.0194 
     72 H72        31.8991   -1.4341    0.3589 H         1 UNK         0.0906 
     73 H73        32.6477   -1.1704   -1.2189 H         1 UNK         0.0906 
     74 H74        31.6685    0.1003   -0.4865 H         1 UNK         0.0906 
     75 H75        30.0470   -2.7108    0.2470 H         1 UNK         0.3140 
     76 H76        28.8159   -3.3210   -2.3083 H         1 UNK         0.1085 
     77 H77        28.1145   -4.3314    0.4876 H         1 UNK         0.0836 
     78 H78        27.4685   -4.9506   -0.9968 H         1 UNK         0.0836 
     79 H79        31.5331   -4.3481   -0.8065 H         1 UNK         0.0731 
     80 H80        31.9333   -5.9890   -1.1797 H         1 UNK         0.0731 
     81 H81        33.1202   -4.0787   -2.8056 H         1 UNK         0.1312 
     82 H82        31.2208   -4.0992   -6.6439 H         1 UNK         0.1406 
     83 H83        29.1803   -5.7302   -3.2584 H         1 UNK         0.1631 
     84 H84        28.5381   -6.1924   -5.8543 H         1 UNK         0.0717 
     85 H85        29.0117   -4.8884   -6.9202 H         1 UNK         0.0717 
     86 H86        29.2134   -2.4626   -5.2978 H         1 UNK         0.0934 
     87 H87        27.8810   -1.9757   -4.3075 H         1 UNK         0.0934 
     88 H88        27.9326   -2.0201   -7.3561 H         1 UNK         0.0739 
     89 H89        25.6507   -1.7532   -5.5989 H         1 UNK         0.3093 
     90 H90        23.5071   -0.3844   -8.1008 H         1 UNK         0.0818 
     91 H91        22.1895   -2.4607   -7.8016 H         1 UNK         0.0819 
     92 H92        23.5917   -2.7803   -8.8075 H         1 UNK         0.0819 
     93 H93        23.5930   -3.2893   -7.1247 H         1 UNK         0.0819 
     94 H94        22.8609   -1.4493   -5.5722 H         1 UNK         0.3041 
     95 H95        22.7435    1.4910   -3.9257 H         1 UNK         0.0784 
     96 H96        21.3752   -0.5905   -4.1578 H         1 UNK         0.0793 
     97 H97        22.6966   -1.5531   -3.4923 H         1 UNK         0.0793 
     98 H98        21.8916   -0.3463   -2.5028 H         1 UNK         0.0793 
     99 H99        24.4259    1.4405   -2.4787 H         1 UNK         0.3024 
    100 H100       27.0148    0.9176   -2.2999 H         1 UNK         0.1171 
    101 H101       26.7091    0.6373    0.2115 H         1 UNK         0.0786 
    102 H102       25.2432   -0.2867   -0.1061 H         1 UNK         0.0786 
    103 H103       25.3460    1.4021   -0.5768 H         1 UNK         0.0786 
    104 H104       28.4125   -0.7837   -2.1335 H         1 UNK         0.2977 
    105 H105       26.4968    0.6432   -5.5854 H         1 UNK         0.3127 
    106 H106       28.9175    2.3347   -5.8231 H         1 UNK         0.0770 
    107 H107       26.1072    2.9530   -4.7718 H         1 UNK         0.0814 
    108 H108       27.4458    4.0883   -4.8261 H         1 UNK         0.0814 
    109 H109       27.5568    2.6678   -3.8064 H         1 UNK         0.0814 
    110 H110       25.6818    1.8783   -7.2786 H         1 UNK         0.2983 
    111 H111       25.8442    4.0784   -9.0739 H         1 UNK         0.0947 
    112 H112       23.8345    3.0627  -10.1059 H         1 UNK         0.0806 
    113 H113       23.7023    3.0315   -8.3540 H         1 UNK         0.0806 
    114 H114       24.1070    1.5611   -9.2368 H         1 UNK         0.0806 
    115 H115       26.3677    0.5436   -9.6883 H         1 UNK         0.3000 
    116 H116       27.1652    1.1520  -12.4739 H         1 UNK         0.0850 
    117 H117       26.9428   -1.2832  -12.7931 H         1 UNK         0.0810 
    118 H118       25.4854   -0.6223  -12.0704 H         1 UNK         0.0810 
    119 H119       26.6305   -1.5221  -11.0811 H         1 UNK         0.0810 
    120 H120       28.4803   -0.7685   -9.7052 H         1 UNK         0.3040 
    121 H121       30.9877   -1.1892  -11.0850 H         1 UNK         0.0766 
    122 H122       31.6131   -2.4871   -9.1032 H         1 UNK         0.0812 
    123 H123       30.2550   -1.8675   -8.1917 H         1 UNK         0.0812 
    124 H124       29.9798   -2.9102   -9.5861 H         1 UNK         0.0812 
    125 H125       29.8792    1.2720   -8.9497 H         1 UNK         0.3205 
    126 H126       30.7165    3.1223   -8.0772 H         1 UNK         0.0754 
    127 H127       32.6378    4.2565   -9.0951 H         1 UNK         0.0769 
    128 H128       31.6592    3.5346  -10.3608 H         1 UNK         0.0769 
    129 H129       33.1714    2.7723   -9.8689 H         1 UNK         0.0769 
    130 H130       31.0878    0.6681   -6.6723 H         1 UNK         0.2981 
    131 H131       33.6922    0.8304   -5.3356 H         1 UNK         0.0541 
    132 H132       30.8251    2.6295   -4.8438 H         1 UNK         0.3459 
    133 H133       31.1143    2.9961   -3.1604 H         1 UNK         0.3459 
    134 H134       31.3211   -1.0424   -4.9046 H         1 UNK         0.0612 
    135 H135       32.8263   -1.1374   -4.0211 H         1 UNK         0.0612 
    136 H136       34.0087   -4.0562   -6.1000 H         1 UNK         0.0624 
    137 H137       34.2741   -3.1282   -4.6419 H         1 UNK         0.0624 
@<TRIPOS>BOND
     1    1    2 1    
     2    1   72 1    
     3    1   73 1    
     4    1   74 1    
     5    2    3 2    
     6    2    4 am   BACKBONE|DICT|INTERRES
     7    4    5 1    
     8    4   75 1    
     9    5    6 1    
    10    5   35 1    
    11    5   76 1    
    12    6    7 1    
    13    6   77 1    
    14    6   78 1    
    15    7    8 1    
    16    8    9 1    
    17    8   79 1    
    18    8   80 1    
    19    9   10 ar   
    20    9   14 ar   
    21   10   11 ar   
    22   10   81 1    
    23   11   12 ar   
    24   11   71 1    
    25   12   13 ar   
    26   12   82 1    
    27   13   14 ar   
    28   13   15 1    
    29   14   83 1    
    30   15   16 1    
    31   15   84 1    
    32   15   85 1    
    33   16   17 1    
    34   17   18 1    
    35   17   86 1    
    36   17   87 1    
    37   18   19 1    
    38   18   37 1    
    39   18   88 1    
    40   19   20 am   BACKBONE|DICT|INTERRES
    41   19   89 1    
    42   20   21 2    
    43   20   22 1    
    44   22   23 1    
    45   22   24 1    
    46   22   90 1    
    47   23   91 1    
    48   23   92 1    
    49   23   93 1    
    50   24   25 am   BACKBONE|DICT|INTERRES
    51   24   94 1    
    52   25   26 2    
    53   25   27 1    
    54   27   28 1    
    55   27   29 1    
    56   27   95 1    
    57   28   96 1    
    58   28   97 1    
    59   28   98 1    
    60   29   30 am   BACKBONE|DICT|INTERRES
    61   29   99 1    
    62   30   31 2    
    63   30   32 1    
    64   32   33 1    
    65   32   34 1    
    66   32  100 1    
    67   33  101 1    
    68   33  102 1    
    69   33  103 1    
    70   34   35 am   BACKBONE|DICT|INTERRES
    71   34  104 1    
    72   35   36 2    
    73   37   38 2    
    74   37   39 am   BACKBONE|DICT|INTERRES
    75   39   40 1    
    76   39  105 1    
    77   40   41 1    
    78   40   42 1    
    79   40  106 1    
    80   41  107 1    
    81   41  108 1    
    82   41  109 1    
    83   42   43 2    
    84   42   44 am   BACKBONE|DICT|INTERRES
    85   44   45 1    
    86   44  110 1    
    87   45   46 1    
    88   45   47 1    
    89   45  111 1    
    90   46  112 1    
    91   46  113 1    
    92   46  114 1    
    93   47   48 2    
    94   47   49 am   BACKBONE|DICT|INTERRES
    95   49   50 1    
    96   49  115 1    
    97   50   51 1    
    98   50   52 1    
    99   50  116 1    
   100   51  117 1    
   101   51  118 1    
   102   51  119 1    
   103   52   53 2    
   104   52   54 am   BACKBONE|DICT|INTERRES
   105   54   55 1    
   106   54  120 1    
   107   55   56 1    
   108   55   57 1    
   109   55  121 1    
   110   56  122 1    
   111   56  123 1    
   112   56  124 1    
   113   57   58 2    
   114   57   59 am   BACKBONE|DICT|INTERRES
   115   59   60 1    
   116   59  125 1    
   117   60   61 1    
   118   60   62 1    
   119   60  126 1    
   120   61  127 1    
   121   61  128 1    
   122   61  129 1    
   123   62   63 2    
   124   62   64 am   BACKBONE|DICT|INTERRES
   125   64   65 1    
   126   64  130 1    
   127   65   66 1    
   128   65   69 1    
   129   65  131 1    
   130   66   67 am   BACKBONE|DICT|INTERRES
   131   66   68 2    
   132   67  132 1    
   133   67  133 1    
   134   69   70 1    
   135   69  134 1    
   136   69  135 1    
   137   70   71 1    
   138   71  136 1    
   139   71  137 1    
@<TRIPOS>SUBSTRUCTURE
     1 UNK         1 GROUP             0       ****    0 ROOT    
