@<TRIPOS>MOLECULE
3R137
137   139    1
SMALL
USER_CHARGES


@<TRIPOS>ATOM
      1 CA         26.8031   -2.7295    2.9757 C.3       0 UNK        -0.2020 
      2 C          27.0017   -2.3234    1.5235 C.2       0 UNK         0.4855 
      3 O          26.6758   -1.1961    1.1522 O.2       0 UNK        -0.5197 
      4 N          27.5194   -3.2369    0.6930 N.am      1 UNK        -0.4892 
      5 CA         27.8268   -3.0492   -0.7331 C.3       1 UNK         0.0835 
      6 C6         28.9312   -4.0442   -1.1884 C.3       12 UNK        -0.0855 
      7 S7         30.5246   -3.7407   -0.3447 S.3       12 UNK        -0.2931 
      8 C8         31.6576   -3.3527   -1.7335 C.3       12 UNK         0.0378 
      9 C9         31.3904   -2.0402   -2.4771 C.ar      12 UNK        -0.0802 
     10 C10        31.9159   -1.8742   -3.7645 C.ar      12 UNK        -0.0944 
     11 C11        31.6862   -0.6993   -4.4968 C.ar      12 UNK        -0.0787 
     12 C12        30.9199    0.3170   -3.9163 C.ar      12 UNK        -0.0862 
     13 C13        30.4050    0.1792   -2.6243 C.ar      12 UNK        -0.0733 
     14 C14        30.6639   -0.9901   -1.9054 C.ar      12 UNK        -0.0832 
     15 C15        29.5869    1.2920   -1.9823 C.3       12 UNK         0.0240 
     16 S16        27.8640    0.7703   -1.6953 S.3       12 UNK        -0.2522 
     17 C17        26.9399    1.6616   -2.9899 C.3       12 UNK        -0.0967 
     18 CA         27.3209    1.2730   -4.4387 C.3       5 UNK         0.0660 
     19 N          27.3068   -0.1718   -4.6733 N.am      5 UNK        -0.4015 
     20 C          27.9264   -0.7779   -5.6963 C.2       4 UNK         0.4946 
     21 O          28.5770   -0.1812   -6.5514 O.2       4 UNK        -0.5353 
     22 CA         27.7616   -2.3034   -5.8029 C.3       4 UNK         0.0277 
     23 CB         28.7386   -3.0007   -4.8516 C.3       4 UNK        -0.1981 
     24 N          26.4023   -2.7394   -5.4863 N.am      4 UNK        -0.4209 
     25 C          25.3224   -2.4326   -6.2193 C.2       3 UNK         0.4942 
     26 O          25.3761   -1.8363   -7.2944 O.2       3 UNK        -0.5208 
     27 CA         23.9468   -2.8066   -5.6370 C.3       3 UNK         0.0250 
     28 CB         23.4605   -4.1408   -6.2240 C.3       3 UNK        -0.1990 
     29 N          23.9171   -2.8815   -4.1721 N.am      3 UNK        -0.4232 
     30 C          24.2330   -1.8849   -3.3320 C.2       2 UNK         0.4993 
     31 O          24.5816   -0.7634   -3.7058 O.2       2 UNK        -0.5286 
     32 CA         24.1978   -2.1957   -1.8252 C.3       2 UNK         0.0209 
     33 CB         23.3701   -3.4493   -1.4610 C.3       2 UNK        -0.1931 
     34 N          25.5434   -2.2942   -1.2470 N.am      2 UNK        -0.4546 
     35 C          26.5507   -3.1028   -1.6109 C.2       1 UNK         0.5154 
     36 O          26.4916   -3.8679   -2.5765 O.2       1 UNK        -0.5181 
     37 C          26.4190    2.0056   -5.4467 C.2       5 UNK         0.5014 
     38 O          26.7584    3.1130   -5.8633 O.2       5 UNK        -0.5248 
     39 N          25.3137    1.3667   -5.8624 N.am      6 UNK        -0.4434 
     40 CA         24.4348    1.8453   -6.9363 C.3       6 UNK         0.0363 
     41 CB         23.1764    0.9666   -7.0072 C.3       6 UNK        -0.1936 
     42 C          25.1350    1.9107   -8.3093 C.2       6 UNK         0.5081 
     43 O          24.7674    2.7475   -9.1336 O.2       6 UNK        -0.5248 
     44 N          26.1550    1.0652   -8.5140 N.am      7 UNK        -0.4718 
     45 CA         27.0550    1.0868   -9.6702 C.3       7 UNK         0.0273 
     46 CB         27.5914   -0.3359   -9.9088 C.3       7 UNK        -0.1935 
     47 C          28.2138    2.0958   -9.5203 C.2       7 UNK         0.5018 
     48 O          29.0668    2.1535  -10.4078 O.2       7 UNK        -0.5186 
     49 N          28.2453    2.8658   -8.4206 N.am      8 UNK        -0.4240 
     50 CA         29.2659    3.8477   -8.0445 C.3       8 UNK         0.0235 
     51 CB         29.2751    5.0496   -9.0171 C.3       8 UNK        -0.2000 
     52 C          30.6374    3.1790   -7.8576 C.2       8 UNK         0.4941 
     53 O          30.8852    2.6129   -6.7936 O.2       8 UNK        -0.5273 
     54 N          31.4922    3.2550   -8.8841 N.am      9 UNK        -0.4262 
     55 CA         32.8051    2.6113   -8.9304 C.3       9 UNK         0.0264 
     56 CB         33.8331    3.6281   -9.4552 C.3       9 UNK        -0.1955 
     57 C          32.8132    1.3459   -9.8065 C.2       9 UNK         0.5031 
     58 O          33.7987    0.6088   -9.7664 O.2       9 UNK        -0.5390 
     59 N          31.7490    1.0923  -10.5839 N.am      10 UNK        -0.4204 
     60 CA         31.6677   -0.0018  -11.5591 C.3       10 UNK         0.0237 
     61 CB         30.7932    0.4434  -12.7471 C.3       10 UNK        -0.1985 
     62 C          31.1907   -1.3305  -10.9391 C.2       10 UNK         0.4970 
     63 O          30.4720   -2.0865  -11.5949 O.2       10 UNK        -0.4914 
     64 N          31.5988   -1.6016   -9.6944 N.am      11 UNK        -0.4285 
     65 CA         31.3254   -2.8525   -8.9725 C.3       11 UNK         0.1007 
     66 C          32.2031   -4.0632   -9.4076 C.2       11 UNK         0.5703 
     67 N          33.2454   -3.8787  -10.2101 N.am      11 UNK        -0.7361 
     68 O          31.9205   -5.1954   -9.0229 O.2       11 UNK        -0.4986 
     69 C69        31.3337   -2.6403   -7.4371 C.3       12 UNK        -0.0947 
     70 S70        32.8835   -1.9295   -6.7828 S.3       12 UNK        -0.2240 
     71 C71        32.2706   -0.4548   -5.8933 C.3       12 UNK         0.0194 
     72 H72        25.7491   -2.6608    3.2436 H         1 UNK         0.0906 
     73 H73        27.1355   -3.7503    3.1638 H         1 UNK         0.0906 
     74 H74        27.3652   -2.0642    3.6305 H         1 UNK         0.0906 
     75 H75        27.7520   -4.1493    1.0591 H         1 UNK         0.3140 
     76 H76        28.2176   -2.0402   -0.8616 H         1 UNK         0.1085 
     77 H77        29.0991   -3.9994   -2.2618 H         1 UNK         0.0836 
     78 H78        28.6221   -5.0715   -0.9877 H         1 UNK         0.0836 
     79 H79        31.6304   -4.1853   -2.4384 H         1 UNK         0.0731 
     80 H80        32.6747   -3.3174   -1.3413 H         1 UNK         0.0731 
     81 H81        32.5074   -2.6718   -4.1904 H         1 UNK         0.1312 
     82 H82        30.7354    1.2252   -4.4745 H         1 UNK         0.1406 
     83 H83        30.2868   -1.0733   -0.8965 H         1 UNK         0.1631 
     84 H84        29.6132    2.2016   -2.5841 H         1 UNK         0.0717 
     85 H85        30.0363    1.5508   -1.0226 H         1 UNK         0.0717 
     86 H86        25.8790    1.4745   -2.8113 H         1 UNK         0.0934 
     87 H87        27.0840    2.7328   -2.8350 H         1 UNK         0.0934 
     88 H88        28.3381    1.6240   -4.6218 H         1 UNK         0.0739 
     89 H89        26.7224   -0.7132   -4.0500 H         1 UNK         0.3093 
     90 H90        27.9869   -2.6070   -6.8276 H         1 UNK         0.0818 
     91 H91        28.5660   -4.0759   -4.8009 H         1 UNK         0.0819 
     92 H92        28.6570   -2.5870   -3.8480 H         1 UNK         0.0819 
     93 H93        29.7675   -2.8510   -5.1653 H         1 UNK         0.0819 
     94 H94        26.2723   -3.2337   -4.6095 H         1 UNK         0.3041 
     95 H95        23.2448   -2.0258   -5.9348 H         1 UNK         0.0784 
     96 H96        23.4478   -4.1055   -7.3144 H         1 UNK         0.0793 
     97 H97        24.1067   -4.9698   -5.9322 H         1 UNK         0.0793 
     98 H98        22.4463   -4.3728   -5.8981 H         1 UNK         0.0793 
     99 H99        23.6763   -3.7762   -3.7706 H         1 UNK         0.3024 
    100 H100       23.7183   -1.3351   -1.3554 H         1 UNK         0.1171 
    101 H101       23.2728   -3.5473   -0.3796 H         1 UNK         0.0786 
    102 H102       22.3586   -3.3874   -1.8653 H         1 UNK         0.0786 
    103 H103       23.8229   -4.3702   -1.8302 H         1 UNK         0.0786 
    104 H104       25.7280   -1.6879   -0.4508 H         1 UNK         0.2977 
    105 H105       25.0746    0.4845   -5.4238 H         1 UNK         0.3127 
    106 H106       24.1256    2.8603   -6.6778 H         1 UNK         0.0770 
    107 H107       23.4084   -0.0450   -7.3385 H         1 UNK         0.0814 
    108 H108       22.4574    1.3794   -7.7160 H         1 UNK         0.0814 
    109 H109       22.6777    0.9010   -6.0400 H         1 UNK         0.0814 
    110 H110       26.3726    0.3891   -7.7926 H         1 UNK         0.2983 
    111 H111       26.4861    1.3842  -10.5535 H         1 UNK         0.0947 
    112 H112       28.2617   -0.6573   -9.1114 H         1 UNK         0.0806 
    113 H113       28.1516   -0.3906  -10.8424 H         1 UNK         0.0806 
    114 H114       26.7809   -1.0618   -9.9771 H         1 UNK         0.0806 
    115 H115       27.5265    2.7224   -7.7200 H         1 UNK         0.3000 
    116 H116       28.9779    4.2280   -7.0632 H         1 UNK         0.0850 
    117 H117       30.0349    5.7783   -8.7309 H         1 UNK         0.0810 
    118 H118       28.3156    5.5667   -9.0003 H         1 UNK         0.0810 
    119 H119       29.4687    4.7590  -10.0497 H         1 UNK         0.0810 
    120 H120       31.1875    3.7332   -9.7204 H         1 UNK         0.3040 
    121 H121       33.1126    2.3075   -7.9274 H         1 UNK         0.0766 
    122 H122       34.8347    3.1961   -9.4782 H         1 UNK         0.0812 
    123 H123       33.8781    4.5106   -8.8167 H         1 UNK         0.0812 
    124 H124       33.5969    3.9576  -10.4678 H         1 UNK         0.0812 
    125 H125       30.9124    1.6657  -10.4959 H         1 UNK         0.3205 
    126 H126       32.6679   -0.1911  -11.9548 H         1 UNK         0.0754 
    127 H127       29.7535    0.5879  -12.4536 H         1 UNK         0.0769 
    128 H128       30.8055   -0.3003  -13.5449 H         1 UNK         0.0769 
    129 H129       31.1527    1.3790  -13.1757 H         1 UNK         0.0769 
    130 H130       32.2338   -0.9577   -9.2420 H         1 UNK         0.2981 
    131 H131       30.3051   -3.1463   -9.2271 H         1 UNK         0.0541 
    132 H132       33.4939   -2.9539  -10.5218 H         1 UNK         0.3459 
    133 H133       33.8001   -4.6726  -10.4887 H         1 UNK         0.3459 
    134 H134       31.1376   -3.5791   -6.9167 H         1 UNK         0.0612 
    135 H135       30.5079   -1.9786   -7.1783 H         1 UNK         0.0612 
    136 H136       33.1010    0.2449   -5.7925 H         1 UNK         0.0624 
    137 H137       31.5289    0.0422   -6.5202 H         1 UNK         0.0624 
@<TRIPOS>BOND
     1    1    2 1    
     2    1   72 1    
     3    1   73 1    
     4    1   74 1    
     5    2    3 2    
     6    2    4 am   BACKBONE|DICT|INTERRES
     7    4    5 1    
     8    4   75 1    
     9    5    6 1    
    10    5   35 1    
    11    5   76 1    
    12    6    7 1    
    13    6   77 1    
    14    6   78 1    
    15    7    8 1    
    16    8    9 1    
    17    8   79 1    
    18    8   80 1    
    19    9   10 ar   
    20    9   14 ar   
    21   10   11 ar   
    22   10   81 1    
    23   11   12 ar   
    24   11   71 1    
    25   12   13 ar   
    26   12   82 1    
    27   13   14 ar   
    28   13   15 1    
    29   14   83 1    
    30   15   16 1    
    31   15   84 1    
    32   15   85 1    
    33   16   17 1    
    34   17   18 1    
    35   17   86 1    
    36   17   87 1    
    37   18   19 1    
    38   18   37 1    
    39   18   88 1    
    40   19   20 am   BACKBONE|DICT|INTERRES
    41   19   89 1    
    42   20   21 2    
    43   20   22 1    
    44   22   23 1    
    45   22   24 1    
    46   22   90 1    
    47   23   91 1    
    48   23   92 1    
    49   23   93 1    
    50   24   25 am   BACKBONE|DICT|INTERRES
    51   24   94 1    
    52   25   26 2    
    53   25   27 1    
    54   27   28 1    
    55   27   29 1    
    56   27   95 1    
    57   28   96 1    
    58   28   97 1    
    59   28   98 1    
    60   29   30 am   BACKBONE|DICT|INTERRES
    61   29   99 1    
    62   30   31 2    
    63   30   32 1    
    64   32   33 1    
    65   32   34 1    
    66   32  100 1    
    67   33  101 1    
    68   33  102 1    
    69   33  103 1    
    70   34   35 am   BACKBONE|DICT|INTERRES
    71   34  104 1    
    72   35   36 2    
    73   37   38 2    
    74   37   39 am   BACKBONE|DICT|INTERRES
    75   39   40 1    
    76   39  105 1    
    77   40   41 1    
    78   40   42 1    
    79   40  106 1    
    80   41  107 1    
    81   41  108 1    
    82   41  109 1    
    83   42   43 2    
    84   42   44 am   BACKBONE|DICT|INTERRES
    85   44   45 1    
    86   44  110 1    
    87   45   46 1    
    88   45   47 1    
    89   45  111 1    
    90   46  112 1    
    91   46  113 1    
    92   46  114 1    
    93   47   48 2    
    94   47   49 am   BACKBONE|DICT|INTERRES
    95   49   50 1    
    96   49  115 1    
    97   50   51 1    
    98   50   52 1    
    99   50  116 1    
   100   51  117 1    
   101   51  118 1    
   102   51  119 1    
   103   52   53 2    
   104   52   54 am   BACKBONE|DICT|INTERRES
   105   54   55 1    
   106   54  120 1    
   107   55   56 1    
   108   55   57 1    
   109   55  121 1    
   110   56  122 1    
   111   56  123 1    
   112   56  124 1    
   113   57   58 2    
   114   57   59 am   BACKBONE|DICT|INTERRES
   115   59   60 1    
   116   59  125 1    
   117   60   61 1    
   118   60   62 1    
   119   60  126 1    
   120   61  127 1    
   121   61  128 1    
   122   61  129 1    
   123   62   63 2    
   124   62   64 am   BACKBONE|DICT|INTERRES
   125   64   65 1    
   126   64  130 1    
   127   65   66 1    
   128   65   69 1    
   129   65  131 1    
   130   66   67 am   BACKBONE|DICT|INTERRES
   131   66   68 2    
   132   67  132 1    
   133   67  133 1    
   134   69   70 1    
   135   69  134 1    
   136   69  135 1    
   137   70   71 1    
   138   71  136 1    
   139   71  137 1    
@<TRIPOS>SUBSTRUCTURE
     1 UNK         1 GROUP             0       ****    0 ROOT    
