@<TRIPOS>MOLECULE
3R137
137   139    1
SMALL
USER_CHARGES


@<TRIPOS>ATOM
      1 CA         27.3532   -4.6077    2.3772 C.3       0 UNK        -0.2020 
      2 C          27.2069   -3.1317    2.0392 C.2       0 UNK         0.4855 
      3 O          26.8157   -2.3424    2.8992 O.2       0 UNK        -0.5197 
      4 N          27.5165   -2.7532    0.7920 N.am      1 UNK        -0.4892 
      5 CA         27.4379   -1.3711    0.2951 C.3       1 UNK         0.0835 
      6 C6         28.3063   -1.1601   -0.9687 C.3       12 UNK        -0.0855 
      7 S7         30.0852   -1.3781   -0.6342 S.3       12 UNK        -0.2931 
      8 C8         30.4420   -2.9743   -1.4391 C.3       12 UNK         0.0378 
      9 C9         30.4365   -2.8966   -2.9622 C.ar      12 UNK        -0.0802 
     10 C10        31.2872   -2.0087   -3.6287 C.ar      12 UNK        -0.0944 
     11 C11        31.3334   -1.9800   -5.0255 C.ar      12 UNK        -0.0787 
     12 C12        30.5305   -2.8562   -5.7603 C.ar      12 UNK        -0.0862 
     13 C13        29.6816   -3.7545   -5.1076 C.ar      12 UNK        -0.0733 
     14 C14        29.6289   -3.7605   -3.7095 C.ar      12 UNK        -0.0832 
     15 C15        28.8611   -4.7580   -5.9038 C.3       12 UNK         0.0240 
     16 S16        27.2548   -4.0787   -6.4154 S.3       12 UNK        -0.2522 
     17 C17        27.6471   -3.3200   -8.0316 C.3       12 UNK        -0.0967 
     18 CA         27.1667   -1.8558   -8.1712 C.3       5 UNK         0.0660 
     19 N          25.7553   -1.6978   -7.8072 N.am      5 UNK        -0.4015 
     20 C          25.0346   -0.5748   -7.9242 C.2       4 UNK         0.4946 
     21 O          25.4686    0.4624   -8.4271 O.2       4 UNK        -0.5353 
     22 CA         23.6127   -0.5865   -7.3391 C.3       4 UNK         0.0277 
     23 CB         22.5849   -0.8453   -8.4519 C.3       4 UNK        -0.1981 
     24 N          23.4016   -1.5444   -6.2441 N.am      4 UNK        -0.4209 
     25 C          24.0651   -1.5524   -5.0787 C.2       3 UNK         0.4942 
     26 O          25.0164   -0.8109   -4.8182 O.2       3 UNK        -0.5208 
     27 CA         23.6052   -2.5797   -4.0405 C.3       3 UNK         0.0250 
     28 CB         24.3359   -3.9213   -4.2199 C.3       3 UNK        -0.1990 
     29 N          23.8753   -2.0460   -2.7095 N.am      3 UNK        -0.4232 
     30 C          23.1720   -2.3232   -1.6066 C.2       2 UNK         0.4993 
     31 O          22.2250   -3.1120   -1.5811 O.2       2 UNK        -0.5286 
     32 CA         23.6244   -1.6168   -0.3198 C.3       2 UNK         0.0209 
     33 CB         22.8445   -2.0786    0.9270 C.3       2 UNK        -0.1931 
     34 N          25.0517   -1.8560   -0.1033 N.am      2 UNK        -0.4546 
     35 C          25.9864   -0.9075    0.0385 C.2       1 UNK         0.5154 
     36 O          25.7445    0.2985   -0.0266 O.2       1 UNK        -0.5181 
     37 C          28.1058   -0.8595   -7.4585 C.2       5 UNK         0.5014 
     38 O          29.1120   -0.4666   -8.0511 O.2       5 UNK        -0.5248 
     39 N          27.7333   -0.3955   -6.2566 N.am      6 UNK        -0.4434 
     40 CA         28.4403    0.6558   -5.5212 C.3       6 UNK         0.0363 
     41 CB         27.8143    0.7932   -4.1278 C.3       6 UNK        -0.1936 
     42 C          28.4608    2.0187   -6.2426 C.2       6 UNK         0.5081 
     43 O          29.3296    2.8359   -5.9398 O.2       6 UNK        -0.5248 
     44 N          27.5293    2.2359   -7.1817 N.am      7 UNK        -0.4718 
     45 CA         27.4929    3.3929   -8.0742 C.3       7 UNK         0.0273 
     46 CB         26.0932    4.0276   -8.0245 C.3       7 UNK        -0.1935 
     47 C          27.8511    2.9944   -9.5145 C.2       7 UNK         0.5018 
     48 O          28.6042    3.7195  -10.1639 O.2       7 UNK        -0.5186 
     49 N          27.2956    1.8729   -9.9993 N.am      8 UNK        -0.4240 
     50 CA         27.4222    1.4211  -11.3877 C.3       8 UNK         0.0235 
     51 CB         26.3313    0.3835  -11.7003 C.3       8 UNK        -0.2000 
     52 C          28.8160    0.8788  -11.7430 C.2       8 UNK         0.4941 
     53 O          29.3259    1.2091  -12.8146 O.2       8 UNK        -0.5273 
     54 N          29.4071    0.0653  -10.8561 N.am      9 UNK        -0.4262 
     55 CA         30.7782   -0.4366  -10.9961 C.3       9 UNK         0.0264 
     56 CB         30.8874   -1.8642  -10.4321 C.3       9 UNK        -0.1955 
     57 C          31.7737    0.5030  -10.3016 C.2       9 UNK         0.5031 
     58 O          32.8977    0.6481  -10.7828 O.2       9 UNK        -0.5390 
     59 N          31.3473    1.1217   -9.1892 N.am      10 UNK        -0.4204 
     60 CA         32.0102    2.1728   -8.4001 C.3       10 UNK         0.0237 
     61 CB         32.2674    3.4301   -9.2536 C.3       10 UNK        -0.1985 
     62 C          33.2870    1.7492   -7.6502 C.2       10 UNK         0.4970 
     63 O          33.5699    2.3271   -6.6006 O.2       10 UNK        -0.4914 
     64 N          34.0165    0.7566   -8.1733 N.am      11 UNK        -0.4285 
     65 CA         35.2446    0.1713   -7.6078 C.3       11 UNK         0.1007 
     66 C          36.4779    1.1273   -7.6156 C.2       11 UNK         0.5703 
     67 N          36.4726    2.2069   -8.3893 N.am      11 UNK        -0.7361 
     68 O          37.4724    0.8735   -6.9394 O.2       11 UNK        -0.4986 
     69 C69        35.0139   -0.5062   -6.2245 C.3       12 UNK        -0.0947 
     70 S70        33.7871   -1.8572   -6.2736 S.3       12 UNK        -0.2240 
     71 C71        32.2646   -1.0149   -5.7387 C.3       12 UNK         0.0194 
     72 H72        27.7109   -5.1888    1.5274 H         1 UNK         0.0906 
     73 H73        28.0602   -4.7359    3.1964 H         1 UNK         0.0906 
     74 H74        26.3930   -5.0181    2.6888 H         1 UNK         0.0906 
     75 H75        27.8466   -3.4410    0.1311 H         1 UNK         0.3140 
     76 H76        27.8268   -0.7138    1.0767 H         1 UNK         0.1085 
     77 H77        28.1866   -0.1397   -1.3367 H         1 UNK         0.0836 
     78 H78        27.9890   -1.8187   -1.7794 H         1 UNK         0.0836 
     79 H79        29.7354   -3.7236   -1.0804 H         1 UNK         0.0731 
     80 H80        31.4283   -3.3101   -1.1162 H         1 UNK         0.0731 
     81 H81        31.9226   -1.3469   -3.0560 H         1 UNK         0.1312 
     82 H82        30.5833   -2.8468   -6.8399 H         1 UNK         0.1406 
     83 H83        28.9800   -4.4632   -3.2044 H         1 UNK         0.1631 
     84 H84        28.6782   -5.6461   -5.2970 H         1 UNK         0.0717 
     85 H85        29.4202   -5.1059   -6.7736 H         1 UNK         0.0717 
     86 H86        28.7142   -3.3980   -8.2463 H         1 UNK         0.0934 
     87 H87        27.1608   -3.9281   -8.7961 H         1 UNK         0.0934 
     88 H88        27.2330   -1.6081   -9.2310 H         1 UNK         0.0739 
     89 H89        25.3286   -2.4956   -7.3595 H         1 UNK         0.3093 
     90 H90        23.4320    0.4114   -6.9340 H         1 UNK         0.0818 
     91 H91        21.5643   -0.7399   -8.0835 H         1 UNK         0.0819 
     92 H92        22.7058   -0.1318   -9.2688 H         1 UNK         0.0819 
     93 H93        22.6894   -1.8451   -8.8752 H         1 UNK         0.0819 
     94 H94        22.6473   -2.2048   -6.3705 H         1 UNK         0.3041 
     95 H95        22.5300   -2.7310   -4.1606 H         1 UNK         0.0784 
     96 H96        24.1970   -4.3180   -5.2264 H         1 UNK         0.0793 
     97 H97        25.4083   -3.8173   -4.0512 H         1 UNK         0.0793 
     98 H98        23.9618   -4.6712   -3.5228 H         1 UNK         0.0793 
     99 H99        24.6175   -1.3576   -2.6777 H         1 UNK         0.3024 
    100 H100       23.4269   -0.5522   -0.4654 H         1 UNK         0.1171 
    101 H101       23.1718   -1.5422    1.8178 H         1 UNK         0.0786 
    102 H102       21.7757   -1.8929    0.8124 H         1 UNK         0.0786 
    103 H103       22.9747   -3.1455    1.1130 H         1 UNK         0.0786 
    104 H104       25.3443   -2.8223   -0.0626 H         1 UNK         0.2977 
    105 H105       26.8717   -0.7344   -5.8408 H         1 UNK         0.3127 
    106 H106       29.4760    0.3323   -5.4015 H         1 UNK         0.0770 
    107 H107       26.8001    1.1914   -4.1781 H         1 UNK         0.0814 
    108 H108       27.7681   -0.1736   -3.6292 H         1 UNK         0.0814 
    109 H109       28.4013    1.4635   -3.4988 H         1 UNK         0.0814 
    110 H110       26.8493    1.5065   -7.3673 H         1 UNK         0.2983 
    111 H111       28.2163    4.1462   -7.7539 H         1 UNK         0.0947 
    112 H112       25.8541    4.3751   -7.0193 H         1 UNK         0.0806 
    113 H113       25.3161    3.3247   -8.3280 H         1 UNK         0.0806 
    114 H114       26.0318    4.8907   -8.6888 H         1 UNK         0.0806 
    115 H115       26.6436    1.3554   -9.4112 H         1 UNK         0.3000 
    116 H116       27.2418    2.2867  -12.0294 H         1 UNK         0.0850 
    117 H117       26.3759    0.0748  -12.7457 H         1 UNK         0.0810 
    118 H118       25.3356    0.7919  -11.5260 H         1 UNK         0.0810 
    119 H119       26.4329   -0.5141  -11.0923 H         1 UNK         0.0810 
    120 H120       28.9519   -0.1208   -9.9695 H         1 UNK         0.3040 
    121 H121       31.0448   -0.4811  -12.0544 H         1 UNK         0.0766 
    122 H122       30.7640   -1.8956   -9.3501 H         1 UNK         0.0812 
    123 H123       31.8682   -2.2881  -10.6514 H         1 UNK         0.0812 
    124 H124       30.1431   -2.5255  -10.8757 H         1 UNK         0.0812 
    125 H125       30.4530    0.8126   -8.8199 H         1 UNK         0.3205 
    126 H126       31.2899    2.4483   -7.6304 H         1 UNK         0.0754 
    127 H127       32.6579    4.2436   -8.6408 H         1 UNK         0.0769 
    128 H128       31.3479    3.7878   -9.7168 H         1 UNK         0.0769 
    129 H129       32.9921    3.2452  -10.0470 H         1 UNK         0.0769 
    130 H130       33.7404    0.4172   -9.0898 H         1 UNK         0.2981 
    131 H131       35.5226   -0.6204   -8.3039 H         1 UNK         0.0541 
    132 H132       35.6730    2.4193   -8.9635 H         1 UNK         0.3459 
    133 H133       37.2781    2.8125   -8.3973 H         1 UNK         0.3459 
    134 H134       34.7375    0.2272   -5.4664 H         1 UNK         0.0612 
    135 H135       35.9421   -0.9564   -5.8689 H         1 UNK         0.0612 
    136 H136       32.5037   -0.1760   -5.0838 H         1 UNK         0.0624 
    137 H137       31.7603   -0.5944   -6.6098 H         1 UNK         0.0624 
@<TRIPOS>BOND
     1    1    2 1    
     2    1   72 1    
     3    1   73 1    
     4    1   74 1    
     5    2    3 2    
     6    2    4 am   BACKBONE|DICT|INTERRES
     7    4    5 1    
     8    4   75 1    
     9    5    6 1    
    10    5   35 1    
    11    5   76 1    
    12    6    7 1    
    13    6   77 1    
    14    6   78 1    
    15    7    8 1    
    16    8    9 1    
    17    8   79 1    
    18    8   80 1    
    19    9   10 ar   
    20    9   14 ar   
    21   10   11 ar   
    22   10   81 1    
    23   11   12 ar   
    24   11   71 1    
    25   12   13 ar   
    26   12   82 1    
    27   13   14 ar   
    28   13   15 1    
    29   14   83 1    
    30   15   16 1    
    31   15   84 1    
    32   15   85 1    
    33   16   17 1    
    34   17   18 1    
    35   17   86 1    
    36   17   87 1    
    37   18   19 1    
    38   18   37 1    
    39   18   88 1    
    40   19   20 am   BACKBONE|DICT|INTERRES
    41   19   89 1    
    42   20   21 2    
    43   20   22 1    
    44   22   23 1    
    45   22   24 1    
    46   22   90 1    
    47   23   91 1    
    48   23   92 1    
    49   23   93 1    
    50   24   25 am   BACKBONE|DICT|INTERRES
    51   24   94 1    
    52   25   26 2    
    53   25   27 1    
    54   27   28 1    
    55   27   29 1    
    56   27   95 1    
    57   28   96 1    
    58   28   97 1    
    59   28   98 1    
    60   29   30 am   BACKBONE|DICT|INTERRES
    61   29   99 1    
    62   30   31 2    
    63   30   32 1    
    64   32   33 1    
    65   32   34 1    
    66   32  100 1    
    67   33  101 1    
    68   33  102 1    
    69   33  103 1    
    70   34   35 am   BACKBONE|DICT|INTERRES
    71   34  104 1    
    72   35   36 2    
    73   37   38 2    
    74   37   39 am   BACKBONE|DICT|INTERRES
    75   39   40 1    
    76   39  105 1    
    77   40   41 1    
    78   40   42 1    
    79   40  106 1    
    80   41  107 1    
    81   41  108 1    
    82   41  109 1    
    83   42   43 2    
    84   42   44 am   BACKBONE|DICT|INTERRES
    85   44   45 1    
    86   44  110 1    
    87   45   46 1    
    88   45   47 1    
    89   45  111 1    
    90   46  112 1    
    91   46  113 1    
    92   46  114 1    
    93   47   48 2    
    94   47   49 am   BACKBONE|DICT|INTERRES
    95   49   50 1    
    96   49  115 1    
    97   50   51 1    
    98   50   52 1    
    99   50  116 1    
   100   51  117 1    
   101   51  118 1    
   102   51  119 1    
   103   52   53 2    
   104   52   54 am   BACKBONE|DICT|INTERRES
   105   54   55 1    
   106   54  120 1    
   107   55   56 1    
   108   55   57 1    
   109   55  121 1    
   110   56  122 1    
   111   56  123 1    
   112   56  124 1    
   113   57   58 2    
   114   57   59 am   BACKBONE|DICT|INTERRES
   115   59   60 1    
   116   59  125 1    
   117   60   61 1    
   118   60   62 1    
   119   60  126 1    
   120   61  127 1    
   121   61  128 1    
   122   61  129 1    
   123   62   63 2    
   124   62   64 am   BACKBONE|DICT|INTERRES
   125   64   65 1    
   126   64  130 1    
   127   65   66 1    
   128   65   69 1    
   129   65  131 1    
   130   66   67 am   BACKBONE|DICT|INTERRES
   131   66   68 2    
   132   67  132 1    
   133   67  133 1    
   134   69   70 1    
   135   69  134 1    
   136   69  135 1    
   137   70   71 1    
   138   71  136 1    
   139   71  137 1    
@<TRIPOS>SUBSTRUCTURE
     1 UNK         1 GROUP             0       ****    0 ROOT    
