@<TRIPOS>MOLECULE
3R137
137   139    1
SMALL
USER_CHARGES


@<TRIPOS>ATOM
      1 CA         26.6001   -5.4456    1.5535 C.3       0 UNK        -0.2020 
      2 C          27.2092   -4.5643    0.4736 C.2       0 UNK         0.4855 
      3 O          27.8062   -3.5350    0.7878 O.2       0 UNK        -0.5197 
      4 N          27.0530   -4.9514   -0.8001 N.am      1 UNK        -0.4892 
      5 CA         27.5829   -4.2347   -1.9701 C.3       1 UNK         0.0835 
      6 C6         28.0714   -5.2271   -3.0590 C.3       12 UNK        -0.0855 
      7 S7         29.3684   -4.6139   -4.1972 S.3       12 UNK        -0.2931 
      8 C8         30.7293   -4.0463   -3.1211 C.3       12 UNK         0.0378 
      9 C9         30.9074   -2.5346   -3.2150 C.ar      12 UNK        -0.0802 
     10 C10        31.5662   -1.9775   -4.3161 C.ar      12 UNK        -0.0944 
     11 C11        31.7170   -0.5923   -4.4345 C.ar      12 UNK        -0.0787 
     12 C12        31.2181    0.2401   -3.4303 C.ar      12 UNK        -0.0862 
     13 C13        30.5510   -0.3012   -2.3278 C.ar      12 UNK        -0.0733 
     14 C14        30.4138   -1.6884   -2.2169 C.ar      12 UNK        -0.0832 
     15 C15        29.9531    0.6116   -1.2654 C.3       12 UNK         0.0240 
     16 S16        28.7445    1.7929   -1.9539 S.3       12 UNK        -0.2522 
     17 C17        27.5808    0.7076   -2.8529 C.3       12 UNK        -0.0967 
     18 CA         27.6449    0.9042   -4.3912 C.3       5 UNK         0.0660 
     19 N          27.1758   -0.2831   -5.1218 N.am      5 UNK        -0.4015 
     20 C          27.0648   -0.4194   -6.4548 C.2       4 UNK         0.4946 
     21 O          27.3435    0.4622   -7.2677 O.2       4 UNK        -0.5353 
     22 CA         26.5220   -1.7535   -6.9806 C.3       4 UNK         0.0277 
     23 CB         27.6387   -2.8023   -7.0449 C.3       4 UNK        -0.1981 
     24 N          25.4303   -2.2402   -6.1400 N.am      4 UNK        -0.4209 
     25 C          24.1398   -1.9389   -6.3404 C.2       3 UNK         0.4942 
     26 O          23.7246   -1.3007   -7.3083 O.2       3 UNK        -0.5208 
     27 CA         23.1360   -2.4143   -5.2753 C.3       3 UNK         0.0250 
     28 CB         22.5843   -3.8027   -5.6375 C.3       3 UNK        -0.1990 
     29 N          23.6860   -2.4497   -3.9176 N.am      3 UNK        -0.4232 
     30 C          24.1283   -1.3802   -3.2419 C.2       2 UNK         0.4993 
     31 O          24.1419   -0.2324   -3.6908 O.2       2 UNK        -0.5286 
     32 CA         24.6925   -1.6479   -1.8375 C.3       2 UNK         0.0209 
     33 CB         23.5510   -1.7587   -0.8138 C.3       2 UNK        -0.1931 
     34 N          25.5719   -2.8199   -1.7128 N.am      2 UNK        -0.4546 
     35 C          26.6204   -3.1383   -2.4901 C.2       1 UNK         0.5154 
     36 O          26.8549   -2.5792   -3.5614 O.2       1 UNK        -0.5181 
     37 C          26.9157    2.1982   -4.8042 C.2       5 UNK         0.5014 
     38 O          27.5621    3.2388   -4.9262 O.2       5 UNK        -0.5248 
     39 N          25.6058    2.0925   -5.0760 N.am      6 UNK        -0.4434 
     40 CA         24.7355    3.1634   -5.5738 C.3       6 UNK         0.0363 
     41 CB         23.3316    2.5851   -5.8142 C.3       6 UNK        -0.1936 
     42 C          25.2371    3.8892   -6.8409 C.2       6 UNK         0.5081 
     43 O          24.9060    5.0618   -7.0202 O.2       6 UNK        -0.5248 
     44 N          26.0245    3.2035   -7.6815 N.am      7 UNK        -0.4718 
     45 CA         26.6677    3.7656   -8.8748 C.3       7 UNK         0.0273 
     46 CB         26.0204    3.1288  -10.1178 C.3       7 UNK        -0.1935 
     47 C          28.1945    3.5516   -8.8789 C.2       7 UNK         0.5018 
     48 O          28.8415    3.9058   -9.8651 O.2       7 UNK        -0.5186 
     49 N          28.7357    2.9418   -7.8114 N.am      8 UNK        -0.4240 
     50 CA         30.0943    2.3957   -7.6697 C.3       8 UNK         0.0235 
     51 CB         31.1307    3.5318   -7.5552 C.3       8 UNK        -0.2000 
     52 C          30.4556    1.3648   -8.7638 C.2       8 UNK         0.4941 
     53 O          31.6221    1.2539   -9.1436 O.2       8 UNK        -0.5273 
     54 N          29.4468    0.6298   -9.2561 N.am      9 UNK        -0.4262 
     55 CA         29.4996   -0.1821  -10.4775 C.3       9 UNK         0.0264 
     56 CB         28.0963   -0.7285  -10.7857 C.3       9 UNK        -0.1955 
     57 C          30.5264   -1.3241  -10.4456 C.2       9 UNK         0.5031 
     58 O          31.1572   -1.6048  -11.4654 O.2       9 UNK        -0.5390 
     59 N          30.6895   -1.9455   -9.2725 N.am      10 UNK        -0.4204 
     60 CA         31.6348   -3.0381   -9.0344 C.3       10 UNK         0.0237 
     61 CB         31.1437   -3.8658   -7.8342 C.3       10 UNK        -0.1985 
     62 C          33.0894   -2.5668   -8.8384 C.2       10 UNK         0.4970 
     63 O          33.9853   -3.4119   -8.8198 O.2       10 UNK        -0.4914 
     64 N          33.3044   -1.2525   -8.6949 N.am      11 UNK        -0.4285 
     65 CA         34.6193   -0.6236   -8.4994 C.3       11 UNK         0.1007 
     66 C          35.2004   -0.0114   -9.8072 C.2       11 UNK         0.5703 
     67 N          34.5260   -0.1017  -10.9486 N.am      11 UNK        -0.7361 
     68 O          36.3000    0.5371   -9.7936 O.2       11 UNK        -0.4986 
     69 C69        34.5807    0.4143   -7.3447 C.3       12 UNK        -0.0947 
     70 S70        34.1538   -0.3372   -5.7365 S.3       12 UNK        -0.2240 
     71 C71        32.3709    0.0074   -5.6688 C.3       12 UNK         0.0194 
     72 H72        27.3772   -5.7977    2.2314 H         1 UNK         0.0906 
     73 H73        25.8727   -4.8794    2.1346 H         1 UNK         0.0906 
     74 H74        26.0962   -6.3166    1.1349 H         1 UNK         0.0906 
     75 H75        26.5392   -5.7993   -1.0006 H         1 UNK         0.3140 
     76 H76        28.4540   -3.6844   -1.6285 H         1 UNK         0.1085 
     77 H77        28.4878   -6.1171   -2.5838 H         1 UNK         0.0836 
     78 H78        27.2296   -5.5841   -3.6551 H         1 UNK         0.0836 
     79 H79        31.6500   -4.5345   -3.4443 H         1 UNK         0.0731 
     80 H80        30.5734   -4.3655   -2.0901 H         1 UNK         0.0731 
     81 H81        31.9607   -2.6246   -5.0857 H         1 UNK         0.1312 
     82 H82        31.3195    1.3134   -3.5175 H         1 UNK         0.1406 
     83 H83        29.9163   -2.1014   -1.3518 H         1 UNK         0.1631 
     84 H84        30.7560    1.1684   -0.7806 H         1 UNK         0.0717 
     85 H85        29.4638    0.0308   -0.4818 H         1 UNK         0.0717 
     86 H86        27.8061   -0.3255   -2.5916 H         1 UNK         0.0934 
     87 H87        26.5739    0.8925   -2.4760 H         1 UNK         0.0934 
     88 H88        28.6913    1.0204   -4.6792 H         1 UNK         0.0739 
     89 H89        26.9704   -1.0991   -4.5475 H         1 UNK         0.3093 
     90 H90        26.1554   -1.5926   -7.9967 H         1 UNK         0.0818 
     91 H91        28.1286   -2.9239   -6.0801 H         1 UNK         0.0819 
     92 H92        27.2584   -3.7756   -7.3551 H         1 UNK         0.0819 
     93 H93        28.4016   -2.5093   -7.7633 H         1 UNK         0.0819 
     94 H94        25.6947   -2.7199   -5.2869 H         1 UNK         0.3041 
     95 H95        22.3051   -1.7054   -5.2739 H         1 UNK         0.0784 
     96 H96        22.1456   -3.7994   -6.6365 H         1 UNK         0.0793 
     97 H97        23.3657   -4.5637   -5.6274 H         1 UNK         0.0793 
     98 H98        21.8023   -4.1131   -4.9441 H         1 UNK         0.0793 
     99 H99        23.7341   -3.3513   -3.4654 H         1 UNK         0.3024 
    100 H100       25.2913   -0.7784   -1.5653 H         1 UNK         0.1171 
    101 H101       22.9425   -2.6486   -0.9800 H         1 UNK         0.0786 
    102 H102       23.9342   -1.8000    0.2060 H         1 UNK         0.0786 
    103 H103       22.8875   -0.8943   -0.8717 H         1 UNK         0.0786 
    104 H104       25.4714   -3.3554   -0.8628 H         1 UNK         0.2977 
    105 H105       25.1560    1.2013   -4.8904 H         1 UNK         0.3127 
    106 H106       24.6675    3.9120   -4.7821 H         1 UNK         0.0770 
    107 H107       23.3466    1.7937   -6.5652 H         1 UNK         0.0814 
    108 H108       22.6437    3.3561   -6.1639 H         1 UNK         0.0814 
    109 H109       22.9114    2.1683   -4.8984 H         1 UNK         0.0814 
    110 H110       26.2398    2.2342   -7.4694 H         1 UNK         0.2983 
    111 H111       26.5142    4.8458   -8.9217 H         1 UNK         0.0947 
    112 H112       26.4559    3.5213  -11.0377 H         1 UNK         0.0806 
    113 H113       24.9508    3.3360  -10.1550 H         1 UNK         0.0806 
    114 H114       26.1516    2.0466  -10.1278 H         1 UNK         0.0806 
    115 H115       28.1148    2.7411   -7.0376 H         1 UNK         0.3000 
    116 H116       30.0968    1.8465   -6.7276 H         1 UNK         0.0850 
    117 H117       32.1220    3.1394   -7.3258 H         1 UNK         0.0810 
    118 H118       30.8674    4.2287   -6.7596 H         1 UNK         0.0810 
    119 H119       31.2124    4.0970   -8.4842 H         1 UNK         0.0810 
    120 H120       28.5422    0.7207   -8.8016 H         1 UNK         0.3040 
    121 H121       29.7888    0.4857  -11.2918 H         1 UNK         0.0766 
    122 H122       27.3799    0.0789  -10.9344 H         1 UNK         0.0812 
    123 H123       27.7230   -1.3646   -9.9829 H         1 UNK         0.0812 
    124 H124       28.1010   -1.3252  -11.6991 H         1 UNK         0.0812 
    125 H125       30.1460   -1.6250   -8.4856 H         1 UNK         0.3205 
    126 H126       31.6377   -3.6929   -9.9086 H         1 UNK         0.0754 
    127 H127       31.8697   -4.6285   -7.5489 H         1 UNK         0.0769 
    128 H128       30.2138   -4.3838   -8.0697 H         1 UNK         0.0769 
    129 H129       30.9592   -3.2429   -6.9609 H         1 UNK         0.0769 
    130 H130       32.5330   -0.6031   -8.7936 H         1 UNK         0.2981 
    131 H131       35.3394   -1.3903   -8.2083 H         1 UNK         0.0541 
    132 H132       33.6226   -0.5489  -10.9782 H         1 UNK         0.3459 
    133 H133       34.9212    0.2940  -11.7866 H         1 UNK         0.3459 
    134 H134       33.8840    1.2227   -7.5725 H         1 UNK         0.0612 
    135 H135       35.5578    0.8850   -7.2229 H         1 UNK         0.0612 
    136 H136       32.2227    1.0876   -5.6969 H         1 UNK         0.0624 
    137 H137       31.8814   -0.3969   -6.5541 H         1 UNK         0.0624 
@<TRIPOS>BOND
     1    1    2 1    
     2    1   72 1    
     3    1   73 1    
     4    1   74 1    
     5    2    3 2    
     6    2    4 am   BACKBONE|DICT|INTERRES
     7    4    5 1    
     8    4   75 1    
     9    5    6 1    
    10    5   35 1    
    11    5   76 1    
    12    6    7 1    
    13    6   77 1    
    14    6   78 1    
    15    7    8 1    
    16    8    9 1    
    17    8   79 1    
    18    8   80 1    
    19    9   10 ar   
    20    9   14 ar   
    21   10   11 ar   
    22   10   81 1    
    23   11   12 ar   
    24   11   71 1    
    25   12   13 ar   
    26   12   82 1    
    27   13   14 ar   
    28   13   15 1    
    29   14   83 1    
    30   15   16 1    
    31   15   84 1    
    32   15   85 1    
    33   16   17 1    
    34   17   18 1    
    35   17   86 1    
    36   17   87 1    
    37   18   19 1    
    38   18   37 1    
    39   18   88 1    
    40   19   20 am   BACKBONE|DICT|INTERRES
    41   19   89 1    
    42   20   21 2    
    43   20   22 1    
    44   22   23 1    
    45   22   24 1    
    46   22   90 1    
    47   23   91 1    
    48   23   92 1    
    49   23   93 1    
    50   24   25 am   BACKBONE|DICT|INTERRES
    51   24   94 1    
    52   25   26 2    
    53   25   27 1    
    54   27   28 1    
    55   27   29 1    
    56   27   95 1    
    57   28   96 1    
    58   28   97 1    
    59   28   98 1    
    60   29   30 am   BACKBONE|DICT|INTERRES
    61   29   99 1    
    62   30   31 2    
    63   30   32 1    
    64   32   33 1    
    65   32   34 1    
    66   32  100 1    
    67   33  101 1    
    68   33  102 1    
    69   33  103 1    
    70   34   35 am   BACKBONE|DICT|INTERRES
    71   34  104 1    
    72   35   36 2    
    73   37   38 2    
    74   37   39 am   BACKBONE|DICT|INTERRES
    75   39   40 1    
    76   39  105 1    
    77   40   41 1    
    78   40   42 1    
    79   40  106 1    
    80   41  107 1    
    81   41  108 1    
    82   41  109 1    
    83   42   43 2    
    84   42   44 am   BACKBONE|DICT|INTERRES
    85   44   45 1    
    86   44  110 1    
    87   45   46 1    
    88   45   47 1    
    89   45  111 1    
    90   46  112 1    
    91   46  113 1    
    92   46  114 1    
    93   47   48 2    
    94   47   49 am   BACKBONE|DICT|INTERRES
    95   49   50 1    
    96   49  115 1    
    97   50   51 1    
    98   50   52 1    
    99   50  116 1    
   100   51  117 1    
   101   51  118 1    
   102   51  119 1    
   103   52   53 2    
   104   52   54 am   BACKBONE|DICT|INTERRES
   105   54   55 1    
   106   54  120 1    
   107   55   56 1    
   108   55   57 1    
   109   55  121 1    
   110   56  122 1    
   111   56  123 1    
   112   56  124 1    
   113   57   58 2    
   114   57   59 am   BACKBONE|DICT|INTERRES
   115   59   60 1    
   116   59  125 1    
   117   60   61 1    
   118   60   62 1    
   119   60  126 1    
   120   61  127 1    
   121   61  128 1    
   122   61  129 1    
   123   62   63 2    
   124   62   64 am   BACKBONE|DICT|INTERRES
   125   64   65 1    
   126   64  130 1    
   127   65   66 1    
   128   65   69 1    
   129   65  131 1    
   130   66   67 am   BACKBONE|DICT|INTERRES
   131   66   68 2    
   132   67  132 1    
   133   67  133 1    
   134   69   70 1    
   135   69  134 1    
   136   69  135 1    
   137   70   71 1    
   138   71  136 1    
   139   71  137 1    
@<TRIPOS>SUBSTRUCTURE
     1 UNK         1 GROUP             0       ****    0 ROOT    
