@<TRIPOS>MOLECULE
3R137
137   139    1
SMALL
USER_CHARGES


@<TRIPOS>ATOM
      1 CA         26.9621   -6.5955   -3.1365 C.3       0 UNK        -0.2020 
      2 C          26.5083   -6.1287   -1.7617 C.2       0 UNK         0.4855 
      3 O          25.4602   -6.5611   -1.2821 O.2       0 UNK        -0.5197 
      4 N          27.2918   -5.2502   -1.1215 N.am      1 UNK        -0.4892 
      5 CA         26.9897   -4.6494    0.1844 C.3       1 UNK         0.0835 
      6 C6         28.2540   -4.0719    0.8761 C.3       12 UNK        -0.0855 
      7 S7         29.2333   -2.9439   -0.1787 S.3       12 UNK        -0.2931 
      8 C8         30.6625   -3.9897   -0.6136 C.3       12 UNK         0.0378 
      9 C9         31.1304   -3.6861   -2.0270 C.ar      12 UNK        -0.0802 
     10 C10        32.2348   -2.8598   -2.2592 C.ar      12 UNK        -0.0944 
     11 C11        32.6251   -2.5574   -3.5685 C.ar      12 UNK        -0.0787 
     12 C12        31.9015   -3.0817   -4.6445 C.ar      12 UNK        -0.0862 
     13 C13        30.7854   -3.8914   -4.4213 C.ar      12 UNK        -0.0733 
     14 C14        30.4252   -4.2121   -3.1120 C.ar      12 UNK        -0.0832 
     15 C15        29.9309   -4.3756   -5.5848 C.3       12 UNK         0.0240 
     16 S16        28.2440   -3.6833   -5.5041 S.3       12 UNK        -0.2522 
     17 C17        28.5747   -1.8893   -5.5924 C.3       12 UNK        -0.0967 
     18 CA         27.7023   -1.1967   -6.6626 C.3       5 UNK         0.0660 
     19 N          26.2789   -1.2326   -6.3127 N.am      5 UNK        -0.4015 
     20 C          25.2842   -0.9572   -7.1689 C.2       4 UNK         0.4946 
     21 O          25.4618   -0.6818   -8.3544 O.2       4 UNK        -0.5353 
     22 CA         23.8532   -0.9280   -6.6001 C.3       4 UNK         0.0277 
     23 CB         23.2319   -2.3331   -6.6345 C.3       4 UNK        -0.1981 
     24 N          23.7834   -0.3956   -5.2364 N.am      4 UNK        -0.4209 
     25 C          24.2201    0.8153   -4.8612 C.2       3 UNK         0.4942 
     26 O          24.6355    1.6574   -5.6561 O.2       3 UNK        -0.5208 
     27 CA         24.2511    1.1412   -3.3564 C.3       3 UNK         0.0250 
     28 CB         23.1912    2.2024   -3.0190 C.3       3 UNK        -0.1990 
     29 N          24.0829   -0.0081   -2.4581 N.am      3 UNK        -0.4232 
     30 C          24.8906   -1.0749   -2.3711 C.2       2 UNK         0.4993 
     31 O          25.8676   -1.2685   -3.1016 O.2       2 UNK        -0.5286 
     32 CA         24.4867   -2.1213   -1.3273 C.3       2 UNK         0.0209 
     33 CB         23.2810   -2.9461   -1.8171 C.3       2 UNK        -0.1931 
     34 N          25.6031   -3.0220   -1.0548 N.am      2 UNK        -0.4546 
     35 C          25.8347   -3.6246    0.1194 C.2       1 UNK         0.5154 
     36 O          25.1554   -3.4256    1.1286 O.2       1 UNK        -0.5181 
     37 C          28.1926    0.2417   -6.9307 C.2       5 UNK         0.5014 
     38 O          28.9990    0.4454   -7.8399 O.2       5 UNK        -0.5248 
     39 N          27.6832    1.2196   -6.1667 N.am      6 UNK        -0.4434 
     40 CA         27.9627    2.6427   -6.3708 C.3       6 UNK         0.0363 
     41 CB         27.5284    3.4535   -5.1391 C.3       6 UNK        -0.1936 
     42 C          27.2981    3.1725   -7.6511 C.2       6 UNK         0.5081 
     43 O          27.9434    3.8968   -8.4075 O.2       6 UNK        -0.5248 
     44 N          26.0480    2.7576   -7.9046 N.am      7 UNK        -0.4718 
     45 CA         25.2995    3.0509   -9.1322 C.3       7 UNK         0.0273 
     46 CB         23.8527    2.5554   -8.9837 C.3       7 UNK        -0.1935 
     47 C          25.9544    2.4576  -10.3934 C.2       7 UNK         0.5018 
     48 O          25.9611    3.1118  -11.4364 O.2       7 UNK        -0.5186 
     49 N          26.5321    1.2547  -10.2638 N.am      8 UNK        -0.4240 
     50 CA         27.3420    0.5904  -11.2899 C.3       8 UNK         0.0235 
     51 CB         27.4486   -0.9059  -10.9492 C.3       8 UNK        -0.2000 
     52 C          28.7483    1.1984  -11.4722 C.2       8 UNK         0.4941 
     53 O          29.4425    0.8006  -12.4088 O.2       8 UNK        -0.5273 
     54 N          29.1479    2.1276  -10.5893 N.am      9 UNK        -0.4262 
     55 CA         30.4460    2.8077  -10.5295 C.3       9 UNK         0.0264 
     56 CB         30.6605    3.7055  -11.7674 C.3       9 UNK        -0.1955 
     57 C          31.6181    1.8434  -10.2629 C.2       9 UNK         0.5031 
     58 O          32.6773    1.9724  -10.8825 O.2       9 UNK        -0.5390 
     59 N          31.4111    0.8963   -9.3380 N.am      10 UNK        -0.4204 
     60 CA         32.4360   -0.0255   -8.8457 C.3       10 UNK         0.0237 
     61 CB         31.7366   -1.2492   -8.2237 C.3       10 UNK        -0.1985 
     62 C          33.3821    0.6546   -7.8336 C.2       10 UNK         0.4970 
     63 O          33.2408    1.8446   -7.5402 O.2       10 UNK        -0.4914 
     64 N          34.3211   -0.1395   -7.3039 N.am      11 UNK        -0.4285 
     65 CA         35.3164    0.2310   -6.2787 C.3       11 UNK         0.1007 
     66 C          36.5039    1.0923   -6.8051 C.2       11 UNK         0.5703 
     67 N          36.6597    1.2841   -8.1098 N.am      11 UNK        -0.7361 
     68 O          37.3213    1.5689   -6.0206 O.2       11 UNK        -0.4986 
     69 C69        34.7141    0.8099   -4.9575 C.3       12 UNK        -0.0947 
     70 S70        33.1917    0.0006   -4.3584 S.3       12 UNK        -0.2240 
     71 C71        33.7985   -1.6297   -3.8359 C.3       12 UNK         0.0194 
     72 H72        26.6049   -7.6065   -3.3312 H         1 UNK         0.0906 
     73 H73        28.0478   -6.6069   -3.2208 H         1 UNK         0.0906 
     74 H74        26.5608   -5.9393   -3.9086 H         1 UNK         0.0906 
     75 H75        28.1307   -4.9031   -1.5601 H         1 UNK         0.3140 
     76 H76        26.6224   -5.4536    0.8267 H         1 UNK         0.1085 
     77 H77        28.8888   -4.8934    1.2110 H         1 UNK         0.0836 
     78 H78        27.9823   -3.5393    1.7899 H         1 UNK         0.0836 
     79 H79        31.4645   -3.8243    0.1075 H         1 UNK         0.0731 
     80 H80        30.4006   -5.0468   -0.5462 H         1 UNK         0.0731 
     81 H81        32.7769   -2.4378   -1.4238 H         1 UNK         0.1312 
     82 H82        32.1885   -2.8243   -5.6543 H         1 UNK         0.1406 
     83 H83        29.5620   -4.8359   -2.9428 H         1 UNK         0.1631 
     84 H84        29.8715   -5.4645   -5.5609 H         1 UNK         0.0717 
     85 H85        30.3821   -4.1094   -6.5421 H         1 UNK         0.0717 
     86 H86        28.4041   -1.4549   -4.6051 H         1 UNK         0.0934 
     87 H87        29.6318   -1.7341   -5.8085 H         1 UNK         0.0934 
     88 H88        27.8252   -1.7451   -7.5992 H         1 UNK         0.0739 
     89 H89        26.0574   -1.4406   -5.3459 H         1 UNK         0.3093 
     90 H90        23.2577   -0.2730   -7.2389 H         1 UNK         0.0818 
     91 H91        23.2554   -2.7440   -7.6450 H         1 UNK         0.0819 
     92 H92        23.7672   -3.0292   -5.9873 H         1 UNK         0.0819 
     93 H93        22.1885   -2.3144   -6.3193 H         1 UNK         0.0819 
     94 H94        23.4540   -1.0225   -4.5179 H         1 UNK         0.3041 
     95 H95        25.2351    1.5680   -3.1517 H         1 UNK         0.0784 
     96 H96        23.3108    3.0885   -3.6446 H         1 UNK         0.0793 
     97 H97        22.1794    1.8269   -3.1772 H         1 UNK         0.0793 
     98 H98        23.2714    2.5302   -1.9824 H         1 UNK         0.0793 
     99 H99        23.2918    0.0412   -1.8313 H         1 UNK         0.3024 
    100 H100       24.2179   -1.5894   -0.4113 H         1 UNK         0.1171 
    101 H101       22.4166   -2.3118   -2.0170 H         1 UNK         0.0786 
    102 H102       23.5114   -3.4875   -2.7358 H         1 UNK         0.0786 
    103 H103       22.9736   -3.6783   -1.0701 H         1 UNK         0.0786 
    104 H104       26.2434   -3.1632   -1.8253 H         1 UNK         0.2977 
    105 H105       26.9849    0.9870   -5.4757 H         1 UNK         0.3127 
    106 H106       29.0429    2.7606   -6.4847 H         1 UNK         0.0770 
    107 H107       26.4523    3.4066   -4.9734 H         1 UNK         0.0814 
    108 H108       27.7899    4.5056   -5.2589 H         1 UNK         0.0814 
    109 H109       28.0238    3.0987   -4.2353 H         1 UNK         0.0814 
    110 H110       25.5683    2.2106   -7.1925 H         1 UNK         0.2983 
    111 H111       25.2788    4.1362   -9.2526 H         1 UNK         0.0947 
    112 H112       23.2580    2.8220   -9.8584 H         1 UNK         0.0806 
    113 H113       23.3681    2.9980   -8.1131 H         1 UNK         0.0806 
    114 H114       23.8070    1.4717   -8.8770 H         1 UNK         0.0806 
    115 H115       26.3933    0.7436   -9.3967 H         1 UNK         0.3000 
    116 H116       26.8241    0.6861  -12.2465 H         1 UNK         0.0850 
    117 H117       28.0004   -1.4468  -11.7190 H         1 UNK         0.0810 
    118 H118       26.4639   -1.3675  -10.8737 H         1 UNK         0.0810 
    119 H119       27.9674   -1.0653  -10.0036 H         1 UNK         0.0810 
    120 H120       28.5019    2.3863   -9.8528 H         1 UNK         0.3040 
    121 H121       30.3996    3.4633   -9.6587 H         1 UNK         0.0766 
    122 H122       30.7758    3.1196  -12.6796 H         1 UNK         0.0812 
    123 H123       31.5594    4.3130  -11.6569 H         1 UNK         0.0812 
    124 H124       29.8237    4.3892  -11.9101 H         1 UNK         0.0812 
    125 H125       30.5118    0.8596   -8.8601 H         1 UNK         0.3205 
    126 H126       33.0340   -0.3630   -9.6948 H         1 UNK         0.0754 
    127 H127       32.4403   -2.0607   -8.0379 H         1 UNK         0.0769 
    128 H128       30.9610   -1.6444   -8.8805 H         1 UNK         0.0769 
    129 H129       31.2706   -0.9946   -7.2720 H         1 UNK         0.0769 
    130 H130       34.3759   -1.0954   -7.6229 H         1 UNK         0.2981 
    131 H131       35.7864   -0.7159   -6.0135 H         1 UNK         0.0541 
    132 H132       37.4387    1.8330   -8.4379 H         1 UNK         0.3459 
    133 H133       36.0009    0.8982   -8.7664 H         1 UNK         0.3459 
    134 H134       34.4763    1.8667   -5.0901 H         1 UNK         0.0612 
    135 H135       35.4550    0.7706   -4.1572 H         1 UNK         0.0612 
    136 H136       34.4240   -1.5189   -2.9489 H         1 UNK         0.0624 
    137 H137       34.4271   -2.0623   -4.6147 H         1 UNK         0.0624 
@<TRIPOS>BOND
     1    1    2 1    
     2    1   72 1    
     3    1   73 1    
     4    1   74 1    
     5    2    3 2    
     6    2    4 am   BACKBONE|DICT|INTERRES
     7    4    5 1    
     8    4   75 1    
     9    5    6 1    
    10    5   35 1    
    11    5   76 1    
    12    6    7 1    
    13    6   77 1    
    14    6   78 1    
    15    7    8 1    
    16    8    9 1    
    17    8   79 1    
    18    8   80 1    
    19    9   10 ar   
    20    9   14 ar   
    21   10   11 ar   
    22   10   81 1    
    23   11   12 ar   
    24   11   71 1    
    25   12   13 ar   
    26   12   82 1    
    27   13   14 ar   
    28   13   15 1    
    29   14   83 1    
    30   15   16 1    
    31   15   84 1    
    32   15   85 1    
    33   16   17 1    
    34   17   18 1    
    35   17   86 1    
    36   17   87 1    
    37   18   19 1    
    38   18   37 1    
    39   18   88 1    
    40   19   20 am   BACKBONE|DICT|INTERRES
    41   19   89 1    
    42   20   21 2    
    43   20   22 1    
    44   22   23 1    
    45   22   24 1    
    46   22   90 1    
    47   23   91 1    
    48   23   92 1    
    49   23   93 1    
    50   24   25 am   BACKBONE|DICT|INTERRES
    51   24   94 1    
    52   25   26 2    
    53   25   27 1    
    54   27   28 1    
    55   27   29 1    
    56   27   95 1    
    57   28   96 1    
    58   28   97 1    
    59   28   98 1    
    60   29   30 am   BACKBONE|DICT|INTERRES
    61   29   99 1    
    62   30   31 2    
    63   30   32 1    
    64   32   33 1    
    65   32   34 1    
    66   32  100 1    
    67   33  101 1    
    68   33  102 1    
    69   33  103 1    
    70   34   35 am   BACKBONE|DICT|INTERRES
    71   34  104 1    
    72   35   36 2    
    73   37   38 2    
    74   37   39 am   BACKBONE|DICT|INTERRES
    75   39   40 1    
    76   39  105 1    
    77   40   41 1    
    78   40   42 1    
    79   40  106 1    
    80   41  107 1    
    81   41  108 1    
    82   41  109 1    
    83   42   43 2    
    84   42   44 am   BACKBONE|DICT|INTERRES
    85   44   45 1    
    86   44  110 1    
    87   45   46 1    
    88   45   47 1    
    89   45  111 1    
    90   46  112 1    
    91   46  113 1    
    92   46  114 1    
    93   47   48 2    
    94   47   49 am   BACKBONE|DICT|INTERRES
    95   49   50 1    
    96   49  115 1    
    97   50   51 1    
    98   50   52 1    
    99   50  116 1    
   100   51  117 1    
   101   51  118 1    
   102   51  119 1    
   103   52   53 2    
   104   52   54 am   BACKBONE|DICT|INTERRES
   105   54   55 1    
   106   54  120 1    
   107   55   56 1    
   108   55   57 1    
   109   55  121 1    
   110   56  122 1    
   111   56  123 1    
   112   56  124 1    
   113   57   58 2    
   114   57   59 am   BACKBONE|DICT|INTERRES
   115   59   60 1    
   116   59  125 1    
   117   60   61 1    
   118   60   62 1    
   119   60  126 1    
   120   61  127 1    
   121   61  128 1    
   122   61  129 1    
   123   62   63 2    
   124   62   64 am   BACKBONE|DICT|INTERRES
   125   64   65 1    
   126   64  130 1    
   127   65   66 1    
   128   65   69 1    
   129   65  131 1    
   130   66   67 am   BACKBONE|DICT|INTERRES
   131   66   68 2    
   132   67  132 1    
   133   67  133 1    
   134   69   70 1    
   135   69  134 1    
   136   69  135 1    
   137   70   71 1    
   138   71  136 1    
   139   71  137 1    
@<TRIPOS>SUBSTRUCTURE
     1 UNK         1 GROUP             0       ****    0 ROOT    
