@<TRIPOS>MOLECULE
3R137
137   139    1
SMALL
USER_CHARGES


@<TRIPOS>ATOM
      1 CA         26.0071   -4.4214   -2.3433 C.3       0 UNK        -0.2020 
      2 C          25.7426   -4.6474   -0.8569 C.2       0 UNK         0.4855 
      3 O          24.7873   -5.3472   -0.5254 O.2       0 UNK        -0.5197 
      4 N          26.5392   -4.1110    0.0804 N.am      1 UNK        -0.4892 
      5 CA         27.6812   -3.1928   -0.0687 C.3       1 UNK         0.0835 
      6 C6         28.8605   -3.7392   -0.9282 C.3       12 UNK        -0.0855 
      7 S7         29.3428   -5.4527   -0.5139 S.3       12 UNK        -0.2931 
      8 C8         31.0438   -5.5464   -1.1743 C.3       12 UNK         0.0378 
      9 C9         31.1872   -4.9907   -2.5890 C.ar      12 UNK        -0.0802 
     10 C10        32.2283   -4.1021   -2.8797 C.ar      12 UNK        -0.0944 
     11 C11        32.3595   -3.5574   -4.1597 C.ar      12 UNK        -0.0787 
     12 C12        31.4467   -3.9098   -5.1538 C.ar      12 UNK        -0.0862 
     13 C13        30.3862   -4.7736   -4.8730 C.ar      12 UNK        -0.0733 
     14 C14        30.2791   -5.3368   -3.5982 C.ar      12 UNK        -0.0832 
     15 C15        29.3330   -5.0556   -5.9350 C.3       12 UNK         0.0240 
     16 S16        27.8136   -4.0879   -5.6433 S.3       12 UNK        -0.2522 
     17 C17        28.4058   -2.3632   -5.7726 C.3       12 UNK        -0.0967 
     18 CA         27.6095   -1.5249   -6.7993 C.3       5 UNK         0.0660 
     19 N          26.1804   -1.4550   -6.4797 N.am      5 UNK        -0.4015 
     20 C          25.2344   -1.0676   -7.3466 C.2       4 UNK         0.4946 
     21 O          25.4707   -0.7450   -8.5100 O.2       4 UNK        -0.5353 
     22 CA         23.7870   -0.9816   -6.8300 C.3       4 UNK         0.0277 
     23 CB         23.0794   -2.3356   -6.9954 C.3       4 UNK        -0.1981 
     24 N          23.6809   -0.5425   -5.4365 N.am      4 UNK        -0.4209 
     25 C          24.1257    0.6286   -4.9599 C.2       3 UNK         0.4942 
     26 O          24.6576    1.4902   -5.6603 O.2       3 UNK        -0.5208 
     27 CA         24.0173    0.8648   -3.4404 C.3       3 UNK         0.0250 
     28 CB         23.1058   -0.1497   -2.7116 C.3       3 UNK        -0.1990 
     29 N          25.3353    0.9051   -2.7908 N.am      3 UNK        -0.4232 
     30 C          26.2990   -0.0252   -2.8739 C.2       2 UNK         0.4993 
     31 O          26.2273   -1.0178   -3.6010 O.2       2 UNK        -0.5286 
     32 CA         27.5709    0.1655   -2.0224 C.3       2 UNK         0.0209 
     33 CB         27.5057    1.3397   -1.0185 C.3       2 UNK        -0.1931 
     34 N          27.9396   -1.0900   -1.3522 N.am      2 UNK        -0.4546 
     35 C          27.1891   -1.7845   -0.4802 C.2       1 UNK         0.5154 
     36 O          26.1318   -1.3623   -0.0045 O.2       1 UNK        -0.5181 
     37 C          28.2248   -0.1176   -6.9387 C.2       5 UNK         0.5014 
     38 O          29.1137    0.0748   -7.7707 O.2       5 UNK        -0.5248 
     39 N          27.7303    0.8440   -6.1445 N.am      6 UNK        -0.4434 
     40 CA         28.1143    2.2535   -6.2284 C.3       6 UNK         0.0363 
     41 CB         27.7193    2.9922   -4.9398 C.3       6 UNK        -0.1936 
     42 C          27.5076    2.9273   -7.4683 C.2       6 UNK         0.5081 
     43 O          28.2081    3.6771   -8.1458 O.2       6 UNK        -0.5248 
     44 N          26.2428    2.6081   -7.7817 N.am      7 UNK        -0.4718 
     45 CA         25.5467    3.0440   -8.9980 C.3       7 UNK         0.0273 
     46 CB         24.0687    2.6308   -8.9247 C.3       7 UNK        -0.1935 
     47 C          26.2008    2.5107  -10.2859 C.2       7 UNK         0.5018 
     48 O          26.3032    3.2511  -11.2642 O.2       7 UNK        -0.5186 
     49 N          26.6743    1.2567  -10.2463 N.am      8 UNK        -0.4240 
     50 CA         27.4803    0.6265  -11.2970 C.3       8 UNK         0.0235 
     51 CB         27.4760   -0.8965  -11.0824 C.3       8 UNK        -0.2000 
     52 C          28.9303    1.1474  -11.3686 C.2       8 UNK         0.4941 
     53 O          29.6250    0.8266  -12.3338 O.2       8 UNK        -0.5273 
     54 N          29.3644    1.9161  -10.3573 N.am      9 UNK        -0.4262 
     55 CA         30.7029    2.4842  -10.1683 C.3       9 UNK         0.0264 
     56 CB         31.0149    3.5352  -11.2551 C.3       9 UNK        -0.1955 
     57 C          31.8017    1.4137  -10.0248 C.2       9 UNK         0.5031 
     58 O          32.9156    1.6084  -10.5165 O.2       9 UNK        -0.5390 
     59 N          31.4804    0.3061   -9.3399 N.am      10 UNK        -0.4204 
     60 CA         32.4237   -0.7741   -9.0352 C.3       10 UNK         0.0237 
     61 CB         31.6419   -2.0351   -8.6383 C.3       10 UNK        -0.1985 
     62 C          33.4287   -0.3824   -7.9368 C.2       10 UNK         0.4970 
     63 O          34.5667   -0.8515   -7.9638 O.2       10 UNK        -0.4914 
     64 N          32.9954    0.4830   -7.0155 N.am      11 UNK        -0.4285 
     65 CA         33.7860    1.1045   -5.9492 C.3       11 UNK         0.1007 
     66 C          33.0434    2.3450   -5.3828 C.2       11 UNK         0.5703 
     67 N          33.6987    3.1354   -4.5435 N.am      11 UNK        -0.7361 
     68 O          31.8841    2.6061   -5.7034 O.2       11 UNK        -0.4986 
     69 C69        34.2563    0.1069   -4.8497 C.3       12 UNK        -0.0947 
     70 S70        32.9066   -0.8658   -4.0979 S.3       12 UNK        -0.2240 
     71 C71        33.4596   -2.5577   -4.4692 C.3       12 UNK         0.0194 
     72 H72        26.7935   -5.0895   -2.6929 H         1 UNK         0.0906 
     73 H73        25.1104   -4.6338   -2.9248 H         1 UNK         0.0906 
     74 H74        26.2948   -3.3974   -2.5655 H         1 UNK         0.0906 
     75 H75        26.2949   -4.2924    1.0437 H         1 UNK         0.3140 
     76 H76        28.0703   -3.0637    0.9427 H         1 UNK         0.1085 
     77 H77        28.6259   -3.7022   -1.9924 H         1 UNK         0.0836 
     78 H78        29.7404   -3.1075   -0.7910 H         1 UNK         0.0836 
     79 H79        31.3676   -6.5879   -1.1693 H         1 UNK         0.0731 
     80 H80        31.7040   -5.0158   -0.4863 H         1 UNK         0.0731 
     81 H81        32.9293   -3.8176   -2.1067 H         1 UNK         0.1312 
     82 H82        31.5430   -3.4788   -6.1388 H         1 UNK         0.1406 
     83 H83        29.4595   -6.0076   -3.3782 H         1 UNK         0.1631 
     84 H84        29.0840   -6.1177   -5.9305 H         1 UNK         0.0717 
     85 H85        29.7161   -4.8341   -6.9325 H         1 UNK         0.0717 
     86 H86        28.3652   -1.9153   -4.7787 H         1 UNK         0.0934 
     87 H87        29.4576   -2.3634   -6.0514 H         1 UNK         0.0934 
     88 H88        27.7081   -2.0124   -7.7716 H         1 UNK         0.0739 
     89 H89        25.9312   -1.6426   -5.5133 H         1 UNK         0.3093 
     90 H90        23.2632   -0.2467   -7.4438 H         1 UNK         0.0818 
     91 H91        22.0258   -2.2700   -6.7234 H         1 UNK         0.0819 
     92 H92        23.1235   -2.6736   -8.0319 H         1 UNK         0.0819 
     93 H93        23.5392   -3.1106   -6.3806 H         1 UNK         0.0819 
     94 H94        23.2865   -1.2008   -4.7805 H         1 UNK         0.3041 
     95 H95        23.5758    1.8551   -3.3197 H         1 UNK         0.0784 
     96 H96        22.1074   -0.1759   -3.1508 H         1 UNK         0.0793 
     97 H97        23.5116   -1.1621   -2.7328 H         1 UNK         0.0793 
     98 H98        22.9824    0.1252   -1.6639 H         1 UNK         0.0793 
     99 H99        25.4988    1.6999   -2.1892 H         1 UNK         0.3024 
    100 H100       28.3725    0.3811   -2.7309 H         1 UNK         0.1171 
    101 H101       28.4277    1.4089   -0.4410 H         1 UNK         0.0786 
    102 H102       27.3841    2.2948   -1.5308 H         1 UNK         0.0786 
    103 H103       26.6833    1.2341   -0.3100 H         1 UNK         0.0786 
    104 H104       28.7849   -1.5232   -1.6951 H         1 UNK         0.2977 
    105 H105       26.9558    0.6150   -5.5373 H         1 UNK         0.3127 
    106 H106       29.2013    2.3065   -6.3230 H         1 UNK         0.0770 
    107 H107       26.6445    2.9643   -4.7617 H         1 UNK         0.0814 
    108 H108       28.0112    4.0419   -4.9929 H         1 UNK         0.0814 
    109 H109       28.2190    2.5654   -4.0710 H         1 UNK         0.0814 
    110 H110       25.7094    2.0415   -7.1257 H         1 UNK         0.2983 
    111 H111       25.5954    4.1346   -9.0314 H         1 UNK         0.0947 
    112 H112       23.5161    3.0087   -9.7858 H         1 UNK         0.0806 
    113 H113       23.5885    3.0276   -8.0300 H         1 UNK         0.0806 
    114 H114       23.9533    1.5472   -8.9146 H         1 UNK         0.0806 
    115 H115       26.4547    0.6809   -9.4376 H         1 UNK         0.3000 
    116 H116       27.0117    0.8386  -12.2602 H         1 UNK         0.0850 
    117 H117       28.0274   -1.4070  -11.8732 H         1 UNK         0.0810 
    118 H118       26.4615   -1.2956  -11.0867 H         1 UNK         0.0810 
    119 H119       27.9395   -1.1689  -10.1336 H         1 UNK         0.0810 
    120 H120       28.7085    2.1294   -9.6159 H         1 UNK         0.3040 
    121 H121       30.6736    3.0059   -9.2106 H         1 UNK         0.0766 
    122 H122       31.1220    3.0806  -12.2403 H         1 UNK         0.0812 
    123 H123       31.9460    4.0593  -11.0364 H         1 UNK         0.0812 
    124 H124       30.2279    4.2870  -11.3152 H         1 UNK         0.0812 
    125 H125       30.5502    0.2335   -8.9282 H         1 UNK         0.3205 
    126 H126       32.9929   -0.9993   -9.9398 H         1 UNK         0.0754 
    127 H127       32.3183   -2.8653   -8.4307 H         1 UNK         0.0769 
    128 H128       30.9708   -2.3533   -9.4364 H         1 UNK         0.0769 
    129 H129       31.0414   -1.8645   -7.7458 H         1 UNK         0.0769 
    130 H130       32.0468    0.8304   -7.0690 H         1 UNK         0.2981 
    131 H131       34.6781    1.5068   -6.4326 H         1 UNK         0.0541 
    132 H132       34.6504    2.9404   -4.2751 H         1 UNK         0.3459 
    133 H133       33.2293    3.9457   -4.1709 H         1 UNK         0.3459 
    134 H134       34.7844    0.6290   -4.0506 H         1 UNK         0.0612 
    135 H135       34.9950   -0.5731   -5.2752 H         1 UNK         0.0612 
    136 H136       33.7415   -2.6277   -5.5213 H         1 UNK         0.0624 
    137 H137       34.3551   -2.7841   -3.8886 H         1 UNK         0.0624 
@<TRIPOS>BOND
     1    1    2 1    
     2    1   72 1    
     3    1   73 1    
     4    1   74 1    
     5    2    3 2    
     6    2    4 am   BACKBONE|DICT|INTERRES
     7    4    5 1    
     8    4   75 1    
     9    5    6 1    
    10    5   35 1    
    11    5   76 1    
    12    6    7 1    
    13    6   77 1    
    14    6   78 1    
    15    7    8 1    
    16    8    9 1    
    17    8   79 1    
    18    8   80 1    
    19    9   10 ar   
    20    9   14 ar   
    21   10   11 ar   
    22   10   81 1    
    23   11   12 ar   
    24   11   71 1    
    25   12   13 ar   
    26   12   82 1    
    27   13   14 ar   
    28   13   15 1    
    29   14   83 1    
    30   15   16 1    
    31   15   84 1    
    32   15   85 1    
    33   16   17 1    
    34   17   18 1    
    35   17   86 1    
    36   17   87 1    
    37   18   19 1    
    38   18   37 1    
    39   18   88 1    
    40   19   20 am   BACKBONE|DICT|INTERRES
    41   19   89 1    
    42   20   21 2    
    43   20   22 1    
    44   22   23 1    
    45   22   24 1    
    46   22   90 1    
    47   23   91 1    
    48   23   92 1    
    49   23   93 1    
    50   24   25 am   BACKBONE|DICT|INTERRES
    51   24   94 1    
    52   25   26 2    
    53   25   27 1    
    54   27   28 1    
    55   27   29 1    
    56   27   95 1    
    57   28   96 1    
    58   28   97 1    
    59   28   98 1    
    60   29   30 am   BACKBONE|DICT|INTERRES
    61   29   99 1    
    62   30   31 2    
    63   30   32 1    
    64   32   33 1    
    65   32   34 1    
    66   32  100 1    
    67   33  101 1    
    68   33  102 1    
    69   33  103 1    
    70   34   35 am   BACKBONE|DICT|INTERRES
    71   34  104 1    
    72   35   36 2    
    73   37   38 2    
    74   37   39 am   BACKBONE|DICT|INTERRES
    75   39   40 1    
    76   39  105 1    
    77   40   41 1    
    78   40   42 1    
    79   40  106 1    
    80   41  107 1    
    81   41  108 1    
    82   41  109 1    
    83   42   43 2    
    84   42   44 am   BACKBONE|DICT|INTERRES
    85   44   45 1    
    86   44  110 1    
    87   45   46 1    
    88   45   47 1    
    89   45  111 1    
    90   46  112 1    
    91   46  113 1    
    92   46  114 1    
    93   47   48 2    
    94   47   49 am   BACKBONE|DICT|INTERRES
    95   49   50 1    
    96   49  115 1    
    97   50   51 1    
    98   50   52 1    
    99   50  116 1    
   100   51  117 1    
   101   51  118 1    
   102   51  119 1    
   103   52   53 2    
   104   52   54 am   BACKBONE|DICT|INTERRES
   105   54   55 1    
   106   54  120 1    
   107   55   56 1    
   108   55   57 1    
   109   55  121 1    
   110   56  122 1    
   111   56  123 1    
   112   56  124 1    
   113   57   58 2    
   114   57   59 am   BACKBONE|DICT|INTERRES
   115   59   60 1    
   116   59  125 1    
   117   60   61 1    
   118   60   62 1    
   119   60  126 1    
   120   61  127 1    
   121   61  128 1    
   122   61  129 1    
   123   62   63 2    
   124   62   64 am   BACKBONE|DICT|INTERRES
   125   64   65 1    
   126   64  130 1    
   127   65   66 1    
   128   65   69 1    
   129   65  131 1    
   130   66   67 am   BACKBONE|DICT|INTERRES
   131   66   68 2    
   132   67  132 1    
   133   67  133 1    
   134   69   70 1    
   135   69  134 1    
   136   69  135 1    
   137   70   71 1    
   138   71  136 1    
   139   71  137 1    
@<TRIPOS>SUBSTRUCTURE
     1 UNK         1 GROUP             0       ****    0 ROOT    
