@<TRIPOS>MOLECULE
3R137
137   139    1
SMALL
USER_CHARGES


@<TRIPOS>ATOM
      1 CA         26.2689   -7.8825   -4.3629 C.3       0 UNK        -0.2020 
      2 C          26.8048   -6.9823   -3.2594 C.2       0 UNK         0.4855 
      3 O          27.3472   -7.4827   -2.2735 O.2       0 UNK        -0.5197 
      4 N          26.6490   -5.6645   -3.4199 N.am      1 UNK        -0.4892 
      5 CA         27.0347   -4.6323   -2.4535 C.3       1 UNK         0.0835 
      6 C6         28.2389   -3.7875   -2.9430 C.3       12 UNK        -0.0855 
      7 S7         29.7585   -4.7669   -3.2058 S.3       12 UNK        -0.2931 
      8 C8         30.4873   -3.9398   -4.6580 C.3       12 UNK         0.0378 
      9 C9         31.1233   -2.6088   -4.2802 C.ar      12 UNK        -0.0802 
     10 C10        32.4981   -2.5210   -4.0441 C.ar      12 UNK        -0.0944 
     11 C11        33.0802   -1.3012   -3.6843 C.ar      12 UNK        -0.0787 
     12 C12        32.2705   -0.1728   -3.5181 C.ar      12 UNK        -0.0862 
     13 C13        30.8921   -0.2503   -3.7375 C.ar      12 UNK        -0.0733 
     14 C14        30.3357   -1.4619   -4.1599 C.ar      12 UNK        -0.0832 
     15 C15        30.0120    0.9771   -3.5333 C.3       12 UNK         0.0240 
     16 S16        28.4497    0.5836   -2.6684 S.3       12 UNK        -0.2522 
     17 C17        27.3686    1.9157   -3.2796 C.3       12 UNK        -0.0967 
     18 CA         26.8633    1.6378   -4.7172 C.3       5 UNK         0.0660 
     19 N          26.0796    0.4009   -4.8305 N.am      5 UNK        -0.4015 
     20 C          25.8302   -0.2335   -5.9886 C.2       4 UNK         0.4946 
     21 O          26.3026    0.1295   -7.0671 O.2       4 UNK        -0.5353 
     22 CA         24.8430   -1.4162   -5.9793 C.3       4 UNK         0.0277 
     23 CB         25.5920   -2.7503   -6.1026 C.3       4 UNK        -0.1981 
     24 N          23.9572   -1.4432   -4.8108 N.am      4 UNK        -0.4209 
     25 C          23.0666   -0.4809   -4.5190 C.2       3 UNK         0.4942 
     26 O          22.8654    0.4941   -5.2441 O.2       3 UNK        -0.5208 
     27 CA         22.3170   -0.5736   -3.1775 C.3       3 UNK         0.0250 
     28 CB         20.9090   -1.1514   -3.3913 C.3       3 UNK        -0.1990 
     29 N          23.0047   -1.3508   -2.1414 N.am      3 UNK        -0.4232 
     30 C          24.2391   -1.1236   -1.6681 C.2       2 UNK         0.4993 
     31 O          24.9695   -0.2173   -2.0716 O.2       2 UNK        -0.5286 
     32 CA         24.7686   -2.0977   -0.5960 C.3       2 UNK         0.0209 
     33 CB         23.6658   -2.9502    0.0734 C.3       2 UNK        -0.1931 
     34 N          25.8355   -2.9746   -1.1006 N.am      2 UNK        -0.4546 
     35 C          25.8051   -3.7374   -2.2046 C.2       1 UNK         0.5154 
     36 O          24.8684   -3.7465   -3.0118 O.2       1 UNK        -0.5181 
     37 C          26.1709    2.8766   -5.3291 C.2       5 UNK         0.5014 
     38 O          26.8163    3.9209   -5.4275 O.2       5 UNK        -0.5248 
     39 N          24.9143    2.7524   -5.7886 N.am      6 UNK        -0.4434 
     40 CA         24.2824    3.7193   -6.6918 C.3       6 UNK         0.0363 
     41 CB         22.7914    3.3823   -6.8467 C.3       6 UNK        -0.1936 
     42 C          24.9703    3.7722   -8.0723 C.2       6 UNK         0.5081 
     43 O          24.9811    4.8342   -8.6951 O.2       6 UNK        -0.5248 
     44 N          25.5442    2.6419   -8.5122 N.am      7 UNK        -0.4718 
     45 CA         26.3884    2.5410   -9.7034 C.3       7 UNK         0.0273 
     46 CB         26.0325    1.2617  -10.4801 C.3       7 UNK        -0.1935 
     47 C          27.8742    2.5440   -9.3127 C.2       7 UNK         0.5018 
     48 O          28.6528    3.2799   -9.9186 O.2       7 UNK        -0.5186 
     49 N          28.2323    1.7203   -8.3124 N.am      8 UNK        -0.4240 
     50 CA         29.5703    1.5354   -7.7274 C.3       8 UNK         0.0235 
     51 CB         30.0480    2.8261   -7.0280 C.3       8 UNK        -0.2000 
     52 C          30.6301    0.9898   -8.7055 C.2       8 UNK         0.4941 
     53 O          31.8251    1.1272   -8.4394 O.2       8 UNK        -0.5273 
     54 N          30.1921    0.3532   -9.8020 N.am      9 UNK        -0.4262 
     55 CA         31.0196   -0.0992  -10.9296 C.3       9 UNK         0.0264 
     56 CB         30.1031   -0.7037  -12.0064 C.3       9 UNK        -0.1955 
     57 C          32.1551   -1.0804  -10.5772 C.2       9 UNK         0.5031 
     58 O          33.1101   -1.1929  -11.3471 O.2       9 UNK        -0.5390 
     59 N          32.0409   -1.7625   -9.4307 N.am      10 UNK        -0.4204 
     60 CA         33.0594   -2.6565   -8.8816 C.3       10 UNK         0.0237 
     61 CB         32.4398   -3.4758   -7.7396 C.3       10 UNK        -0.1985 
     62 C          34.3269   -1.9317   -8.3892 C.2       10 UNK         0.4970 
     63 O          35.3975   -2.5399   -8.4316 O.2       10 UNK        -0.4914 
     64 N          34.1939   -0.6786   -7.9287 N.am      11 UNK        -0.4285 
     65 CA         35.2941    0.1265   -7.3665 C.3       11 UNK         0.1007 
     66 C          35.4299    1.5358   -8.0062 C.2       11 UNK         0.5703 
     67 N          34.4254    2.0754   -8.6840 N.am      11 UNK        -0.7361 
     68 O          36.4898    2.1497   -7.9041 O.2       11 UNK        -0.4986 
     69 C69        35.2174    0.2221   -5.8174 C.3       12 UNK        -0.0947 
     70 S70        35.5264   -1.3798   -4.9991 S.3       12 UNK        -0.2240 
     71 C71        34.5814   -1.2122   -3.4521 C.3       12 UNK         0.0194 
     72 H72        25.8188   -7.3107   -5.1743 H         1 UNK         0.0906 
     73 H73        27.0759   -8.4842   -4.7802 H         1 UNK         0.0906 
     74 H74        25.5122   -8.5571   -3.9631 H         1 UNK         0.0906 
     75 H75        26.1028   -5.3156   -4.1962 H         1 UNK         0.3140 
     76 H76        27.2939   -5.0939   -1.4979 H         1 UNK         0.1085 
     77 H77        27.9786   -3.2859   -3.8734 H         1 UNK         0.0836 
     78 H78        28.4775   -2.9980   -2.2274 H         1 UNK         0.0836 
     79 H79        29.7295   -3.7962   -5.4298 H         1 UNK         0.0731 
     80 H80        31.2381   -4.6015   -5.0926 H         1 UNK         0.0731 
     81 H81        33.1202   -3.3996   -4.1480 H         1 UNK         0.1312 
     82 H82        32.7146    0.7661   -3.2165 H         1 UNK         0.1406 
     83 H83        29.2762   -1.5157   -4.3615 H         1 UNK         0.1631 
     84 H84        29.8109    1.4114   -4.5101 H         1 UNK         0.0717 
     85 H85        30.5389    1.7410   -2.9595 H         1 UNK         0.0717 
     86 H86        26.5268    2.0233   -2.5932 H         1 UNK         0.0934 
     87 H87        27.9249    2.8541   -3.2283 H         1 UNK         0.0934 
     88 H88        27.7430    1.4916   -5.3425 H         1 UNK         0.0739 
     89 H89        25.6619    0.0611   -3.9685 H         1 UNK         0.3093 
     90 H90        24.2107   -1.3048   -6.8627 H         1 UNK         0.0818 
     91 H91        26.2454   -2.9203   -5.2503 H         1 UNK         0.0819 
     92 H92        24.9000   -3.5900   -6.1695 H         1 UNK         0.0819 
     93 H93        26.2131   -2.7689   -6.9993 H         1 UNK         0.0819 
     94 H94        24.0863   -2.2075   -4.1542 H         1 UNK         0.3041 
     95 H95        22.2151    0.4459   -2.8000 H         1 UNK         0.0784 
     96 H96        20.3603   -0.5769   -4.1392 H         1 UNK         0.0793 
     97 H97        20.9457   -2.1854   -3.7371 H         1 UNK         0.0793 
     98 H98        20.3233   -1.1237   -2.4722 H         1 UNK         0.0793 
     99 H99        22.5037   -2.1462   -1.7729 H         1 UNK         0.3024 
    100 H100       25.2153   -1.4698    0.1771 H         1 UNK         0.1171 
    101 H101       24.0717   -3.5228    0.9076 H         1 UNK         0.0786 
    102 H102       22.8703   -2.3235    0.4796 H         1 UNK         0.0786 
    103 H103       23.2137   -3.6620   -0.6186 H         1 UNK         0.0786 
    104 H104       26.6702   -2.9993   -0.5310 H         1 UNK         0.2977 
    105 H105       24.4067    1.8884   -5.6280 H         1 UNK         0.3127 
    106 H106       24.3645    4.7103   -6.2403 H         1 UNK         0.0770 
    107 H107       22.6442    2.4012   -7.3004 H         1 UNK         0.0814 
    108 H108       22.2901    4.1141   -7.4816 H         1 UNK         0.0814 
    109 H109       22.2812    3.3846   -5.8833 H         1 UNK         0.0814 
    110 H110       25.5067    1.8182   -7.9224 H         1 UNK         0.2983 
    111 H111       26.2150    3.3943  -10.3632 H         1 UNK         0.0947 
    112 H112       26.6594    1.1558  -11.3667 H         1 UNK         0.0806 
    113 H113       24.9965    1.2839  -10.8186 H         1 UNK         0.0806 
    114 H114       26.1645    0.3635   -9.8755 H         1 UNK         0.0806 
    115 H115       27.5056    1.1282   -7.9093 H         1 UNK         0.3000 
    116 H116       29.4582    0.7662   -6.9623 H         1 UNK         0.0850 
    117 H117       30.9618    2.6504   -6.4588 H         1 UNK         0.0810 
    118 H118       29.3021    3.2056   -6.3310 H         1 UNK         0.0810 
    119 H119       30.2638    3.6171   -7.7468 H         1 UNK         0.0810 
    120 H120       29.1934    0.2684   -9.9199 H         1 UNK         0.3040 
    121 H121       31.4952    0.7898  -11.3489 H         1 UNK         0.0766 
    122 H122       30.6787   -1.0222  -12.8769 H         1 UNK         0.0812 
    123 H123       29.3681    0.0214  -12.3566 H         1 UNK         0.0812 
    124 H124       29.5654   -1.5768  -11.6346 H         1 UNK         0.0812 
    125 H125       31.2178   -1.6046   -8.8688 H         1 UNK         0.3205 
    126 H126       33.3628   -3.3469   -9.6717 H         1 UNK         0.0754 
    127 H127       32.0811   -2.8275   -6.9408 H         1 UNK         0.0769 
    128 H128       33.1708   -4.1580   -7.3030 H         1 UNK         0.0769 
    129 H129       31.6013   -4.0787   -8.0887 H         1 UNK         0.0769 
    130 H130       33.2902   -0.2219   -7.9759 H         1 UNK         0.2981 
    131 H131       36.2420   -0.3574   -7.6091 H         1 UNK         0.0541 
    132 H132       33.5035    1.6448   -8.7005 H         1 UNK         0.3459 
    133 H133       34.5536    2.9844   -9.0975 H         1 UNK         0.3459 
    134 H134       34.2436    0.6106   -5.5159 H         1 UNK         0.0612 
    135 H135       35.9599    0.9231   -5.4314 H         1 UNK         0.0612 
    136 H136       34.8505   -0.2731   -2.9660 H         1 UNK         0.0624 
    137 H137       34.8833   -2.0080   -2.7699 H         1 UNK         0.0624 
@<TRIPOS>BOND
     1    1    2 1    
     2    1   72 1    
     3    1   73 1    
     4    1   74 1    
     5    2    3 2    
     6    2    4 am   BACKBONE|DICT|INTERRES
     7    4    5 1    
     8    4   75 1    
     9    5    6 1    
    10    5   35 1    
    11    5   76 1    
    12    6    7 1    
    13    6   77 1    
    14    6   78 1    
    15    7    8 1    
    16    8    9 1    
    17    8   79 1    
    18    8   80 1    
    19    9   10 ar   
    20    9   14 ar   
    21   10   11 ar   
    22   10   81 1    
    23   11   12 ar   
    24   11   71 1    
    25   12   13 ar   
    26   12   82 1    
    27   13   14 ar   
    28   13   15 1    
    29   14   83 1    
    30   15   16 1    
    31   15   84 1    
    32   15   85 1    
    33   16   17 1    
    34   17   18 1    
    35   17   86 1    
    36   17   87 1    
    37   18   19 1    
    38   18   37 1    
    39   18   88 1    
    40   19   20 am   BACKBONE|DICT|INTERRES
    41   19   89 1    
    42   20   21 2    
    43   20   22 1    
    44   22   23 1    
    45   22   24 1    
    46   22   90 1    
    47   23   91 1    
    48   23   92 1    
    49   23   93 1    
    50   24   25 am   BACKBONE|DICT|INTERRES
    51   24   94 1    
    52   25   26 2    
    53   25   27 1    
    54   27   28 1    
    55   27   29 1    
    56   27   95 1    
    57   28   96 1    
    58   28   97 1    
    59   28   98 1    
    60   29   30 am   BACKBONE|DICT|INTERRES
    61   29   99 1    
    62   30   31 2    
    63   30   32 1    
    64   32   33 1    
    65   32   34 1    
    66   32  100 1    
    67   33  101 1    
    68   33  102 1    
    69   33  103 1    
    70   34   35 am   BACKBONE|DICT|INTERRES
    71   34  104 1    
    72   35   36 2    
    73   37   38 2    
    74   37   39 am   BACKBONE|DICT|INTERRES
    75   39   40 1    
    76   39  105 1    
    77   40   41 1    
    78   40   42 1    
    79   40  106 1    
    80   41  107 1    
    81   41  108 1    
    82   41  109 1    
    83   42   43 2    
    84   42   44 am   BACKBONE|DICT|INTERRES
    85   44   45 1    
    86   44  110 1    
    87   45   46 1    
    88   45   47 1    
    89   45  111 1    
    90   46  112 1    
    91   46  113 1    
    92   46  114 1    
    93   47   48 2    
    94   47   49 am   BACKBONE|DICT|INTERRES
    95   49   50 1    
    96   49  115 1    
    97   50   51 1    
    98   50   52 1    
    99   50  116 1    
   100   51  117 1    
   101   51  118 1    
   102   51  119 1    
   103   52   53 2    
   104   52   54 am   BACKBONE|DICT|INTERRES
   105   54   55 1    
   106   54  120 1    
   107   55   56 1    
   108   55   57 1    
   109   55  121 1    
   110   56  122 1    
   111   56  123 1    
   112   56  124 1    
   113   57   58 2    
   114   57   59 am   BACKBONE|DICT|INTERRES
   115   59   60 1    
   116   59  125 1    
   117   60   61 1    
   118   60   62 1    
   119   60  126 1    
   120   61  127 1    
   121   61  128 1    
   122   61  129 1    
   123   62   63 2    
   124   62   64 am   BACKBONE|DICT|INTERRES
   125   64   65 1    
   126   64  130 1    
   127   65   66 1    
   128   65   69 1    
   129   65  131 1    
   130   66   67 am   BACKBONE|DICT|INTERRES
   131   66   68 2    
   132   67  132 1    
   133   67  133 1    
   134   69   70 1    
   135   69  134 1    
   136   69  135 1    
   137   70   71 1    
   138   71  136 1    
   139   71  137 1    
@<TRIPOS>SUBSTRUCTURE
     1 UNK         1 GROUP             0       ****    0 ROOT    
