@<TRIPOS>MOLECULE
3R137
137   139    1
SMALL
USER_CHARGES


@<TRIPOS>ATOM
      1 CA         25.2533   -8.4718   -2.4191 C.3       0 UNK        -0.2020 
      2 C          25.7057   -7.0410   -2.1690 C.2       0 UNK         0.4855 
      3 O          25.6266   -6.5645   -1.0366 O.2       0 UNK        -0.5197 
      4 N          26.1842   -6.3556   -3.2164 N.am      1 UNK        -0.4892 
      5 CA         26.6310   -4.9568   -3.1731 C.3       1 UNK         0.0835 
      6 C6         27.4430   -4.6015   -4.4459 C.3       12 UNK        -0.0855 
      7 S7         28.5248   -3.1508   -4.2363 S.3       12 UNK        -0.2931 
      8 C8         30.0180   -3.9355   -3.5469 C.3       12 UNK         0.0378 
      9 C9         31.1250   -2.9149   -3.3344 C.ar      12 UNK        -0.0802 
     10 C10        32.3033   -2.9751   -4.0854 C.ar      12 UNK        -0.0944 
     11 C11        33.2998   -2.0085   -3.9203 C.ar      12 UNK        -0.0787 
     12 C12        33.1182   -0.9859   -2.9858 C.ar      12 UNK        -0.0862 
     13 C13        31.9450   -0.9156   -2.2304 C.ar      12 UNK        -0.0733 
     14 C14        30.9609   -1.8939   -2.3946 C.ar      12 UNK        -0.0832 
     15 C15        31.7279    0.2391   -1.2642 C.3       12 UNK         0.0240 
     16 S16        30.2647    1.2373   -1.6962 S.3       12 UNK        -0.2522 
     17 C17        30.5792    1.6908   -3.4407 C.3       12 UNK        -0.0967 
     18 CA         29.5117    1.1160   -4.4117 C.3       5 UNK         0.0660 
     19 N          28.1552    1.4834   -3.9832 N.am      5 UNK        -0.4015 
     20 C          27.0024    1.2379   -4.6184 C.2       4 UNK         0.4946 
     21 O          26.9062    0.6721   -5.7121 O.2       4 UNK        -0.5353 
     22 CA         25.7511    1.8071   -3.9453 C.3       4 UNK         0.0277 
     23 CB         25.6090    3.3098   -4.2642 C.3       4 UNK        -0.1981 
     24 N          24.5810    1.0708   -4.4103 N.am      4 UNK        -0.4209 
     25 C          23.3698    1.0934   -3.8450 C.2       3 UNK         0.4942 
     26 O          23.0918    1.7523   -2.8418 O.2       3 UNK        -0.5208 
     27 CA         22.2750    0.2305   -4.4939 C.3       3 UNK         0.0250 
     28 CB         22.2571    0.3291   -6.0374 C.3       3 UNK        -0.1990 
     29 N          22.3263   -1.1597   -4.0257 N.am      3 UNK        -0.4232 
     30 C          23.2963   -2.0573   -4.2501 C.2       2 UNK         0.4993 
     31 O          24.2788   -1.8419   -4.9608 O.2       2 UNK        -0.5286 
     32 CA         23.1074   -3.4373   -3.5916 C.3       2 UNK         0.0209 
     33 CB         21.9850   -4.2246   -4.2910 C.3       2 UNK        -0.1931 
     34 N          24.3276   -4.2480   -3.6213 N.am      2 UNK        -0.4546 
     35 C          25.4519   -3.9856   -2.9387 C.2       1 UNK         0.5154 
     36 O          25.5624   -3.0655   -2.1256 O.2       1 UNK        -0.5181 
     37 C          29.8189    1.5656   -5.8549 C.2       5 UNK         0.5014 
     38 O          30.3255    0.7786   -6.6561 O.2       5 UNK        -0.5248 
     39 N          29.4721    2.8230   -6.1600 N.am      6 UNK        -0.4434 
     40 CA         29.6599    3.4485   -7.4682 C.3       6 UNK         0.0363 
     41 CB         29.7591    4.9707   -7.2773 C.3       6 UNK        -0.1936 
     42 C          28.5504    3.1077   -8.4795 C.2       6 UNK         0.5081 
     43 O          28.7315    3.3830   -9.6654 O.2       6 UNK        -0.5248 
     44 N          27.4255    2.5461   -8.0163 N.am      7 UNK        -0.4718 
     45 CA         26.2785    2.2020   -8.8569 C.3       7 UNK         0.0273 
     46 CB         24.9700    2.4284   -8.0797 C.3       7 UNK        -0.1935 
     47 C          26.3716    0.7582   -9.3639 C.2       7 UNK         0.5018 
     48 O          26.2327    0.5350  -10.5669 O.2       7 UNK        -0.5186 
     49 N          26.5876   -0.1918   -8.4438 N.am      8 UNK        -0.4240 
     50 CA         26.6282   -1.6215   -8.7492 C.3       8 UNK         0.0235 
     51 CB         26.1480   -2.4315   -7.5352 C.3       8 UNK        -0.2000 
     52 C          28.0205   -2.0670   -9.2073 C.2       8 UNK         0.4941 
     53 O          28.1702   -2.5197  -10.3429 O.2       8 UNK        -0.5273 
     54 N          29.0096   -1.9496   -8.3123 N.am      9 UNK        -0.4262 
     55 CA         30.3777   -2.4194   -8.5466 C.3       9 UNK         0.0264 
     56 CB         31.0425   -2.7065   -7.1940 C.3       9 UNK        -0.1955 
     57 C          31.2312   -1.4470   -9.3785 C.2       9 UNK         0.5031 
     58 O          32.2478   -1.8716   -9.9294 O.2       9 UNK        -0.5390 
     59 N          30.8127   -0.1741   -9.4433 N.am      10 UNK        -0.4204 
     60 CA         31.5020    0.9625  -10.0681 C.3       10 UNK         0.0237 
     61 CB         31.6620    0.7617  -11.5906 C.3       10 UNK        -0.1985 
     62 C          32.8230    1.3237   -9.3579 C.2       10 UNK         0.4970 
     63 O          33.7509    1.8170  -10.0016 O.2       10 UNK        -0.4914 
     64 N          32.8806    1.0778   -8.0441 N.am      11 UNK        -0.4285 
     65 CA         34.0225    1.3873   -7.1785 C.3       11 UNK         0.1007 
     66 C          34.0030    2.8769   -6.7509 C.2       11 UNK         0.5703 
     67 N          35.1459    3.5485   -6.7784 N.am      11 UNK        -0.7361 
     68 O          32.9715    3.4155   -6.3551 O.2       11 UNK        -0.4986 
     69 C69        34.0500    0.4583   -5.9405 C.3       12 UNK        -0.0947 
     70 S70        34.3235   -1.2864   -6.3943 S.3       12 UNK        -0.2240 
     71 C71        34.5660   -2.0562   -4.7626 C.3       12 UNK         0.0194 
     72 H72        25.8237   -9.1599   -1.7956 H         1 UNK         0.0906 
     73 H73        24.1983   -8.5805   -2.1691 H         1 UNK         0.0906 
     74 H74        25.3871   -8.7676   -3.4595 H         1 UNK         0.0906 
     75 H75        26.2331   -6.8080   -4.1187 H         1 UNK         0.3140 
     76 H76        27.2937   -4.8646   -2.3094 H         1 UNK         0.1085 
     77 H77        28.0719   -5.4432   -4.7410 H         1 UNK         0.0836 
     78 H78        26.7804   -4.4229   -5.2947 H         1 UNK         0.0836 
     79 H79        29.7766   -4.4102   -2.5950 H         1 UNK         0.0731 
     80 H80        30.3516   -4.7292   -4.2173 H         1 UNK         0.0731 
     81 H81        32.4393   -3.7608   -4.8158 H         1 UNK         0.1312 
     82 H82        33.8825   -0.2302   -2.8660 H         1 UNK         0.1406 
     83 H83        30.0456   -1.8359   -1.8207 H         1 UNK         0.1631 
     84 H84        32.6011    0.8926   -1.2334 H         1 UNK         0.0717 
     85 H85        31.6029   -0.1565   -0.2554 H         1 UNK         0.0717 
     86 H86        31.5776    1.3639   -3.7337 H         1 UNK         0.0934 
     87 H87        30.6034    2.7812   -3.4933 H         1 UNK         0.0934 
     88 H88        29.5719    0.0255   -4.3908 H         1 UNK         0.0739 
     89 H89        28.1137    1.9471   -3.0869 H         1 UNK         0.3093 
     90 H90        25.8423    1.6655   -2.8661 H         1 UNK         0.0818 
     91 H91        24.7426    3.7460   -3.7671 H         1 UNK         0.0819 
     92 H92        26.4815    3.8705   -3.9272 H         1 UNK         0.0819 
     93 H93        25.5012    3.4872   -5.3342 H         1 UNK         0.0819 
     94 H94        24.7648    0.4038   -5.1533 H         1 UNK         0.3041 
     95 H95        21.3219    0.6294   -4.1421 H         1 UNK         0.0784 
     96 H96        22.1832    1.3692   -6.3578 H         1 UNK         0.0793 
     97 H97        23.1511   -0.0877   -6.5014 H         1 UNK         0.0793 
     98 H98        21.3973   -0.1970   -6.4521 H         1 UNK         0.0793 
     99 H99        21.5642   -1.4309   -3.4195 H         1 UNK         0.3024 
    100 H100       22.8350   -3.2781   -2.5457 H         1 UNK         0.1171 
    101 H101       22.2112   -4.3970   -5.3443 H         1 UNK         0.0786 
    102 H102       21.0358   -3.6893   -4.2464 H         1 UNK         0.0786 
    103 H103       21.8263   -5.1944   -3.8187 H         1 UNK         0.0786 
    104 H104       24.3359   -5.0251   -4.2644 H         1 UNK         0.2977 
    105 H105       29.0552    3.3966   -5.4416 H         1 UNK         0.3127 
    106 H106       30.6062    3.1028   -7.8875 H         1 UNK         0.0770 
    107 H107       28.8436    5.3877   -6.8560 H         1 UNK         0.0814 
    108 H108       29.9385    5.4731   -8.2290 H         1 UNK         0.0814 
    109 H109       30.5862    5.2322   -6.6167 H         1 UNK         0.0814 
    110 H110       27.3799    2.2630   -7.0456 H         1 UNK         0.2983 
    111 H111       26.2544    2.8578   -9.7306 H         1 UNK         0.0947 
    112 H112       24.1043    2.1825   -8.6961 H         1 UNK         0.0806 
    113 H113       24.8650    3.4706   -7.7786 H         1 UNK         0.0806 
    114 H114       24.9130    1.8123   -7.1832 H         1 UNK         0.0806 
    115 H115       26.7017    0.0800   -7.4687 H         1 UNK         0.3000 
    116 H116       25.9362   -1.8324   -9.5680 H         1 UNK         0.0850 
    117 H117       26.2981   -3.5012   -7.6866 H         1 UNK         0.0810 
    118 H118       25.0817   -2.2790   -7.3730 H         1 UNK         0.0810 
    119 H119       26.6669   -2.1502   -6.6177 H         1 UNK         0.0810 
    120 H120       28.8084   -1.5588   -7.4018 H         1 UNK         0.3040 
    121 H121       30.3327   -3.3606   -9.0991 H         1 UNK         0.0766 
    122 H122       32.0523   -3.0943   -7.3320 H         1 UNK         0.0812 
    123 H123       31.1184   -1.8092   -6.5786 H         1 UNK         0.0812 
    124 H124       30.4851   -3.4543   -6.6307 H         1 UNK         0.0812 
    125 H125       30.0029    0.0593   -8.8840 H         1 UNK         0.3205 
    126 H126       30.8494    1.8225   -9.9308 H         1 UNK         0.0754 
    127 H127       32.0195    1.6745  -12.0687 H         1 UNK         0.0769 
    128 H128       30.7114    0.5040  -12.0578 H         1 UNK         0.0769 
    129 H129       32.3772   -0.0270  -11.8252 H         1 UNK         0.0769 
    130 H130       32.0455    0.7458   -7.5713 H         1 UNK         0.2981 
    131 H131       34.9387    1.2098   -7.7458 H         1 UNK         0.0541 
    132 H132       35.1517    4.5135   -6.4878 H         1 UNK         0.3459 
    133 H133       36.0002    3.1140   -7.0910 H         1 UNK         0.3459 
    134 H134       33.1110    0.5343   -5.3906 H         1 UNK         0.0612 
    135 H135       34.8442    0.7563   -5.2533 H         1 UNK         0.0612 
    136 H136       34.8720   -3.0934   -4.9059 H         1 UNK         0.0624 
    137 H137       35.3914   -1.5625   -4.2474 H         1 UNK         0.0624 
@<TRIPOS>BOND
     1    1    2 1    
     2    1   72 1    
     3    1   73 1    
     4    1   74 1    
     5    2    3 2    
     6    2    4 am   BACKBONE|DICT|INTERRES
     7    4    5 1    
     8    4   75 1    
     9    5    6 1    
    10    5   35 1    
    11    5   76 1    
    12    6    7 1    
    13    6   77 1    
    14    6   78 1    
    15    7    8 1    
    16    8    9 1    
    17    8   79 1    
    18    8   80 1    
    19    9   10 ar   
    20    9   14 ar   
    21   10   11 ar   
    22   10   81 1    
    23   11   12 ar   
    24   11   71 1    
    25   12   13 ar   
    26   12   82 1    
    27   13   14 ar   
    28   13   15 1    
    29   14   83 1    
    30   15   16 1    
    31   15   84 1    
    32   15   85 1    
    33   16   17 1    
    34   17   18 1    
    35   17   86 1    
    36   17   87 1    
    37   18   19 1    
    38   18   37 1    
    39   18   88 1    
    40   19   20 am   BACKBONE|DICT|INTERRES
    41   19   89 1    
    42   20   21 2    
    43   20   22 1    
    44   22   23 1    
    45   22   24 1    
    46   22   90 1    
    47   23   91 1    
    48   23   92 1    
    49   23   93 1    
    50   24   25 am   BACKBONE|DICT|INTERRES
    51   24   94 1    
    52   25   26 2    
    53   25   27 1    
    54   27   28 1    
    55   27   29 1    
    56   27   95 1    
    57   28   96 1    
    58   28   97 1    
    59   28   98 1    
    60   29   30 am   BACKBONE|DICT|INTERRES
    61   29   99 1    
    62   30   31 2    
    63   30   32 1    
    64   32   33 1    
    65   32   34 1    
    66   32  100 1    
    67   33  101 1    
    68   33  102 1    
    69   33  103 1    
    70   34   35 am   BACKBONE|DICT|INTERRES
    71   34  104 1    
    72   35   36 2    
    73   37   38 2    
    74   37   39 am   BACKBONE|DICT|INTERRES
    75   39   40 1    
    76   39  105 1    
    77   40   41 1    
    78   40   42 1    
    79   40  106 1    
    80   41  107 1    
    81   41  108 1    
    82   41  109 1    
    83   42   43 2    
    84   42   44 am   BACKBONE|DICT|INTERRES
    85   44   45 1    
    86   44  110 1    
    87   45   46 1    
    88   45   47 1    
    89   45  111 1    
    90   46  112 1    
    91   46  113 1    
    92   46  114 1    
    93   47   48 2    
    94   47   49 am   BACKBONE|DICT|INTERRES
    95   49   50 1    
    96   49  115 1    
    97   50   51 1    
    98   50   52 1    
    99   50  116 1    
   100   51  117 1    
   101   51  118 1    
   102   51  119 1    
   103   52   53 2    
   104   52   54 am   BACKBONE|DICT|INTERRES
   105   54   55 1    
   106   54  120 1    
   107   55   56 1    
   108   55   57 1    
   109   55  121 1    
   110   56  122 1    
   111   56  123 1    
   112   56  124 1    
   113   57   58 2    
   114   57   59 am   BACKBONE|DICT|INTERRES
   115   59   60 1    
   116   59  125 1    
   117   60   61 1    
   118   60   62 1    
   119   60  126 1    
   120   61  127 1    
   121   61  128 1    
   122   61  129 1    
   123   62   63 2    
   124   62   64 am   BACKBONE|DICT|INTERRES
   125   64   65 1    
   126   64  130 1    
   127   65   66 1    
   128   65   69 1    
   129   65  131 1    
   130   66   67 am   BACKBONE|DICT|INTERRES
   131   66   68 2    
   132   67  132 1    
   133   67  133 1    
   134   69   70 1    
   135   69  134 1    
   136   69  135 1    
   137   70   71 1    
   138   71  136 1    
   139   71  137 1    
@<TRIPOS>SUBSTRUCTURE
     1 UNK         1 GROUP             0       ****    0 ROOT    
