@<TRIPOS>MOLECULE
3R137
137   139    1
SMALL
USER_CHARGES


@<TRIPOS>ATOM
      1 CA         27.8362   -3.7255    3.4911 C.3       0 UNK        -0.2020 
      2 C          28.1666   -2.7776    2.3477 C.2       0 UNK         0.4855 
      3 O          28.2968   -1.5731    2.5696 O.2       0 UNK        -0.5197 
      4 N          28.3131   -3.3126    1.1295 N.am      1 UNK        -0.4892 
      5 CA         28.5811   -2.5486   -0.0953 C.3       1 UNK         0.0835 
      6 C6         29.0909   -3.4598   -1.2395 C.3       12 UNK        -0.0855 
      7 S7         30.6801   -4.2479   -0.8059 S.3       12 UNK        -0.2931 
      8 C8         30.7642   -5.6154   -2.0069 C.3       12 UNK         0.0378 
      9 C9         30.8523   -5.1118   -3.4406 C.ar      12 UNK        -0.0802 
     10 C10        31.9763   -4.3965   -3.8674 C.ar      12 UNK        -0.0944 
     11 C11        32.0496   -3.9048   -5.1736 C.ar      12 UNK        -0.0787 
     12 C12        31.0027   -4.1566   -6.0630 C.ar      12 UNK        -0.0862 
     13 C13        29.8705   -4.8627   -5.6467 C.ar      12 UNK        -0.0733 
     14 C14        29.8044   -5.3467   -4.3367 C.ar      12 UNK        -0.0832 
     15 C15        28.7020   -5.0623   -6.6030 C.3       12 UNK         0.0240 
     16 S16        27.2331   -4.1101   -6.0915 S.3       12 UNK        -0.2522 
     17 C17        27.8760   -2.4011   -6.0402 C.3       12 UNK        -0.0967 
     18 CA         27.1573   -1.4553   -7.0266 C.3       5 UNK         0.0660 
     19 N          25.7058   -1.4041   -6.8174 N.am      5 UNK        -0.4015 
     20 C          24.8331   -0.7625   -7.6097 C.2       4 UNK         0.4946 
     21 O          25.1662   -0.1125   -8.6015 O.2       4 UNK        -0.5353 
     22 CA         23.3454   -0.8231   -7.2244 C.3       4 UNK         0.0277 
     23 CB         22.6449   -1.9598   -7.9850 C.3       4 UNK        -0.1981 
     24 N          23.1246   -0.9870   -5.7850 N.am      4 UNK        -0.4209 
     25 C          23.4270   -0.0653   -4.8598 C.2       3 UNK         0.4942 
     26 O          23.8682    1.0523   -5.1360 O.2       3 UNK        -0.5208 
     27 CA         23.2167   -0.4505   -3.3800 C.3       3 UNK         0.0250 
     28 CB         23.0032   -1.9648   -3.1478 C.3       3 UNK        -0.1990 
     29 N          24.2992    0.0399   -2.5168 N.am      3 UNK        -0.4232 
     30 C          25.6122   -0.2065   -2.6474 C.2       2 UNK         0.4993 
     31 O          26.0980   -0.8666   -3.5674 O.2       2 UNK        -0.5286 
     32 CA         26.5588    0.3980   -1.5890 C.3       2 UNK         0.0209 
     33 CB         25.8382    1.0514   -0.3862 C.3       2 UNK        -0.1931 
     34 N          27.5627   -0.5679   -1.1201 N.am      2 UNK        -0.4546 
     35 C          27.3323   -1.7506   -0.5283 C.2       1 UNK         0.5154 
     36 O          26.2076   -2.2156   -0.3194 O.2       1 UNK        -0.5181 
     37 C          27.8129   -0.0622   -6.9961 C.2       5 UNK         0.5014 
     38 O          28.7902    0.1506   -7.7143 O.2       5 UNK        -0.5248 
     39 N          27.2416    0.8760   -6.2269 N.am      6 UNK        -0.4434 
     40 CA         27.6538    2.2819   -6.1809 C.3       6 UNK         0.0363 
     41 CB         26.8540    3.0094   -5.0892 C.3       6 UNK        -0.1936 
     42 C          27.5181    3.0201   -7.5281 C.2       6 UNK         0.5081 
     43 O          28.2261    4.0046   -7.7377 O.2       6 UNK        -0.5248 
     44 N          26.6348    2.5357   -8.4119 N.am      7 UNK        -0.4718 
     45 CA         26.4733    3.0279   -9.7788 C.3       7 UNK         0.0273 
     46 CB         24.9755    3.1980  -10.0836 C.3       7 UNK        -0.1935 
     47 C          27.1246    2.0741  -10.7915 C.2       7 UNK         0.5018 
     48 O          27.8120    2.5422  -11.6993 O.2       7 UNK        -0.5186 
     49 N          26.8803    0.7637  -10.6385 N.am      8 UNK        -0.4240 
     50 CA         27.2941   -0.2739  -11.5864 C.3       8 UNK         0.0235 
     51 CB         26.5191   -1.5708  -11.3005 C.3       8 UNK        -0.2000 
     52 C          28.8076   -0.5410  -11.6057 C.2       8 UNK         0.4941 
     53 O          29.3590   -0.7518  -12.6871 O.2       8 UNK        -0.5273 
     54 N          29.4450   -0.5403  -10.4280 N.am      9 UNK        -0.4262 
     55 CA         30.8866   -0.7439  -10.2659 C.3       9 UNK         0.0264 
     56 CB         31.1452   -1.8181   -9.1938 C.3       9 UNK        -0.1955 
     57 C          31.5826    0.5708   -9.8936 C.2       9 UNK         0.5031 
     58 O          32.6398    0.8673  -10.4514 O.2       9 UNK        -0.5390 
     59 N          30.9800    1.3246   -8.9597 N.am      10 UNK        -0.4204 
     60 CA         31.4546    2.5971   -8.3990 C.3       10 UNK         0.0237 
     61 CB         31.4180    3.7134   -9.4642 C.3       10 UNK        -0.1985 
     62 C          32.8186    2.4793   -7.6864 C.2       10 UNK         0.4970 
     63 O          33.6114    3.4230   -7.7063 O.2       10 UNK        -0.4914 
     64 N          33.0635    1.3150   -7.0735 N.am      11 UNK        -0.4285 
     65 CA         34.2545    0.9955   -6.2777 C.3       11 UNK         0.1007 
     66 C          34.3468    1.7985   -4.9483 C.2       11 UNK         0.5703 
     67 N          35.5405    1.9174   -4.3821 N.am      11 UNK        -0.7361 
     68 O          33.3547    2.2932   -4.4147 O.2       11 UNK        -0.4986 
     69 C69        34.3813   -0.5371   -6.0569 C.3       12 UNK        -0.0947 
     70 S70        32.8969   -1.3019   -5.3198 S.3       12 UNK        -0.2240 
     71 C71        33.2345   -3.0630   -5.6157 C.3       12 UNK         0.0194 
     72 H72        27.7720   -4.7611    3.1574 H         1 UNK         0.0906 
     73 H73        28.6036   -3.6654    4.2624 H         1 UNK         0.0906 
     74 H74        26.8806   -3.4538    3.9389 H         1 UNK         0.0906 
     75 H75        28.1850   -4.3060    1.0018 H         1 UNK         0.3140 
     76 H76        29.3679   -1.8266    0.1369 H         1 UNK         0.1085 
     77 H77        28.3543   -4.2300   -1.4768 H         1 UNK         0.0836 
     78 H78        29.2411   -2.8856   -2.1565 H         1 UNK         0.0836 
     79 H79        31.6436   -6.2230   -1.7888 H         1 UNK         0.0731 
     80 H80        29.9001   -6.2676   -1.8707 H         1 UNK         0.0731 
     81 H81        32.7798   -4.1965   -3.1714 H         1 UNK         0.1312 
     82 H82        31.0554   -3.7694   -7.0705 H         1 UNK         0.1406 
     83 H83        28.9235   -5.8842   -4.0121 H         1 UNK         0.1631 
     84 H84        28.4435   -6.1213   -6.6420 H         1 UNK         0.0717 
     85 H85        28.9749   -4.7742   -7.6195 H         1 UNK         0.0717 
     86 H86        28.9437   -2.4035   -6.2591 H         1 UNK         0.0934 
     87 H87        27.7930   -2.0411   -5.0146 H         1 UNK         0.0934 
     88 H88        27.3155   -1.8501   -8.0313 H         1 UNK         0.0739 
     89 H89        25.3621   -1.8887   -6.0006 H         1 UNK         0.3093 
     90 H90        22.8926    0.1230   -7.5293 H         1 UNK         0.0818 
     91 H91        21.5721   -1.9660   -7.7910 H         1 UNK         0.0819 
     92 H92        22.7763   -1.8457   -9.0622 H         1 UNK         0.0819 
     93 H93        23.0432   -2.9376   -7.7107 H         1 UNK         0.0819 
     94 H94        22.7577   -1.8759   -5.4763 H         1 UNK         0.3041 
     95 H95        22.3109    0.0666   -3.0604 H         1 UNK         0.0784 
     96 H96        22.1011   -2.3255   -3.6434 H         1 UNK         0.0793 
     97 H97        23.8466   -2.5563   -3.5073 H         1 UNK         0.0793 
     98 H98        22.8842   -2.1824   -2.0861 H         1 UNK         0.0793 
     99 H99        24.0087    0.6262   -1.7475 H         1 UNK         0.3024 
    100 H100       27.1123    1.1838   -2.1045 H         1 UNK         0.1171 
    101 H101       26.5576    1.4592    0.3243 H         1 UNK         0.0786 
    102 H102       25.2139    0.3388    0.1547 H         1 UNK         0.0786 
    103 H103       25.2055    1.8820   -0.7017 H         1 UNK         0.0786 
    104 H104       28.5230   -0.2997   -1.2849 H         1 UNK         0.2977 
    105 H105       26.4390    0.6151   -5.6677 H         1 UNK         0.3127 
    106 H106       28.7101    2.3050   -5.9048 H         1 UNK         0.0770 
    107 H107       25.7846    3.0054   -5.3034 H         1 UNK         0.0814 
    108 H108       27.1653    4.0517   -5.0066 H         1 UNK         0.0814 
    109 H109       27.0034    2.5503   -4.1130 H         1 UNK         0.0814 
    110 H110       26.1046    1.7073   -8.1666 H         1 UNK         0.2983 
    111 H111       26.9506    4.0041   -9.8912 H         1 UNK         0.0947 
    112 H112       24.8229    3.5580  -11.1020 H         1 UNK         0.0806 
    113 H113       24.5170    3.9237   -9.4117 H         1 UNK         0.0806 
    114 H114       24.4292    2.2592   -9.9832 H         1 UNK         0.0806 
    115 H115       26.2701    0.4647   -9.8787 H         1 UNK         0.3000 
    116 H116       27.0136    0.0661  -12.5858 H         1 UNK         0.0850 
    117 H117       26.7725   -2.3449  -12.0261 H         1 UNK         0.0810 
    118 H118       25.4423   -1.4104  -11.3607 H         1 UNK         0.0810 
    119 H119       26.7414   -1.9675  -10.3104 H         1 UNK         0.0810 
    120 H120       28.9245   -0.3208   -9.5850 H         1 UNK         0.3040 
    121 H121       31.3293   -1.0972  -11.1996 H         1 UNK         0.0766 
    122 H122       32.2145   -1.9987   -9.0749 H         1 UNK         0.0812 
    123 H123       30.7561   -1.5301   -8.2172 H         1 UNK         0.0812 
    124 H124       30.6852   -2.7669   -9.4698 H         1 UNK         0.0812 
    125 H125       30.1347    0.9501   -8.5276 H         1 UNK         0.3205 
    126 H126       30.7402    2.8662   -7.6204 H         1 UNK         0.0754 
    127 H127       31.6344    4.6856   -9.0200 H         1 UNK         0.0769 
    128 H128       30.4327    3.7832   -9.9261 H         1 UNK         0.0769 
    129 H129       32.1497    3.5447  -10.2546 H         1 UNK         0.0769 
    130 H130       32.3449    0.6075   -7.0748 H         1 UNK         0.2981 
    131 H131       35.1131    1.3040   -6.8776 H         1 UNK         0.0541 
    132 H132       36.3618    1.5121   -4.8035 H         1 UNK         0.3459 
    133 H133       35.6219    2.4260   -3.5156 H         1 UNK         0.3459 
    134 H134       35.2463   -0.7742   -5.4349 H         1 UNK         0.0612 
    135 H135       34.5671   -1.0187   -7.0183 H         1 UNK         0.0612 
    136 H136       33.4356   -3.2252   -6.6759 H         1 UNK         0.0624 
    137 H137       34.1357   -3.3574   -5.0755 H         1 UNK         0.0624 
@<TRIPOS>BOND
     1    1    2 1    
     2    1   72 1    
     3    1   73 1    
     4    1   74 1    
     5    2    3 2    
     6    2    4 am   BACKBONE|DICT|INTERRES
     7    4    5 1    
     8    4   75 1    
     9    5    6 1    
    10    5   35 1    
    11    5   76 1    
    12    6    7 1    
    13    6   77 1    
    14    6   78 1    
    15    7    8 1    
    16    8    9 1    
    17    8   79 1    
    18    8   80 1    
    19    9   10 ar   
    20    9   14 ar   
    21   10   11 ar   
    22   10   81 1    
    23   11   12 ar   
    24   11   71 1    
    25   12   13 ar   
    26   12   82 1    
    27   13   14 ar   
    28   13   15 1    
    29   14   83 1    
    30   15   16 1    
    31   15   84 1    
    32   15   85 1    
    33   16   17 1    
    34   17   18 1    
    35   17   86 1    
    36   17   87 1    
    37   18   19 1    
    38   18   37 1    
    39   18   88 1    
    40   19   20 am   BACKBONE|DICT|INTERRES
    41   19   89 1    
    42   20   21 2    
    43   20   22 1    
    44   22   23 1    
    45   22   24 1    
    46   22   90 1    
    47   23   91 1    
    48   23   92 1    
    49   23   93 1    
    50   24   25 am   BACKBONE|DICT|INTERRES
    51   24   94 1    
    52   25   26 2    
    53   25   27 1    
    54   27   28 1    
    55   27   29 1    
    56   27   95 1    
    57   28   96 1    
    58   28   97 1    
    59   28   98 1    
    60   29   30 am   BACKBONE|DICT|INTERRES
    61   29   99 1    
    62   30   31 2    
    63   30   32 1    
    64   32   33 1    
    65   32   34 1    
    66   32  100 1    
    67   33  101 1    
    68   33  102 1    
    69   33  103 1    
    70   34   35 am   BACKBONE|DICT|INTERRES
    71   34  104 1    
    72   35   36 2    
    73   37   38 2    
    74   37   39 am   BACKBONE|DICT|INTERRES
    75   39   40 1    
    76   39  105 1    
    77   40   41 1    
    78   40   42 1    
    79   40  106 1    
    80   41  107 1    
    81   41  108 1    
    82   41  109 1    
    83   42   43 2    
    84   42   44 am   BACKBONE|DICT|INTERRES
    85   44   45 1    
    86   44  110 1    
    87   45   46 1    
    88   45   47 1    
    89   45  111 1    
    90   46  112 1    
    91   46  113 1    
    92   46  114 1    
    93   47   48 2    
    94   47   49 am   BACKBONE|DICT|INTERRES
    95   49   50 1    
    96   49  115 1    
    97   50   51 1    
    98   50   52 1    
    99   50  116 1    
   100   51  117 1    
   101   51  118 1    
   102   51  119 1    
   103   52   53 2    
   104   52   54 am   BACKBONE|DICT|INTERRES
   105   54   55 1    
   106   54  120 1    
   107   55   56 1    
   108   55   57 1    
   109   55  121 1    
   110   56  122 1    
   111   56  123 1    
   112   56  124 1    
   113   57   58 2    
   114   57   59 am   BACKBONE|DICT|INTERRES
   115   59   60 1    
   116   59  125 1    
   117   60   61 1    
   118   60   62 1    
   119   60  126 1    
   120   61  127 1    
   121   61  128 1    
   122   61  129 1    
   123   62   63 2    
   124   62   64 am   BACKBONE|DICT|INTERRES
   125   64   65 1    
   126   64  130 1    
   127   65   66 1    
   128   65   69 1    
   129   65  131 1    
   130   66   67 am   BACKBONE|DICT|INTERRES
   131   66   68 2    
   132   67  132 1    
   133   67  133 1    
   134   69   70 1    
   135   69  134 1    
   136   69  135 1    
   137   70   71 1    
   138   71  136 1    
   139   71  137 1    
@<TRIPOS>SUBSTRUCTURE
     1 UNK         1 GROUP             0       ****    0 ROOT    
