@<TRIPOS>MOLECULE
3R137
137   139    1
SMALL
USER_CHARGES


@<TRIPOS>ATOM
      1 CA         29.8054   -3.9262   -4.5460 C.3       0 UNK        -0.2020 
      2 C          28.9131   -5.1645   -4.5478 C.2       0 UNK         0.4855 
      3 O          29.0656   -5.9968   -5.4400 O.2       0 UNK        -0.5197 
      4 N          27.9878   -5.3717   -3.5970 N.am      1 UNK        -0.4892 
      5 CA         27.5435   -4.5308   -2.4713 C.3       1 UNK         0.0835 
      6 C6         28.6728   -3.9650   -1.5647 C.3       12 UNK        -0.0855 
      7 S7         29.9751   -5.1317   -1.0271 S.3       12 UNK        -0.2931 
      8 C8         31.1037   -4.0351   -0.0834 C.3       12 UNK         0.0378 
      9 C9         31.6471   -2.8909   -0.9335 C.ar      12 UNK        -0.0802 
     10 C10        32.8348   -3.0295   -1.6590 C.ar      12 UNK        -0.0944 
     11 C11        33.2572   -2.0143   -2.5265 C.ar      12 UNK        -0.0787 
     12 C12        32.4632   -0.8733   -2.6925 C.ar      12 UNK        -0.0862 
     13 C13        31.2749   -0.7269   -1.9704 C.ar      12 UNK        -0.0733 
     14 C14        30.9176   -1.7045   -1.0397 C.ar      12 UNK        -0.0832 
     15 C15        30.3188    0.4259   -2.2511 C.3       12 UNK         0.0240 
     16 S16        28.7256   -0.2329   -2.8481 S.3       12 UNK        -0.2522 
     17 C17        27.7965    1.2507   -3.3446 C.3       12 UNK        -0.0967 
     18 CA         27.5975    1.3384   -4.8794 C.3       5 UNK         0.0660 
     19 N          27.0852    0.1023   -5.4863 N.am      5 UNK        -0.4015 
     20 C          27.0830   -0.1493   -6.8039 C.2       4 UNK         0.4946 
     21 O          27.5746    0.6090   -7.6397 O.2       4 UNK        -0.5353 
     22 CA         26.4304   -1.4536   -7.2828 C.3       4 UNK         0.0277 
     23 CB         27.4786   -2.5665   -7.4254 C.3       4 UNK        -0.1981 
     24 N          25.3605   -1.8899   -6.3867 N.am      4 UNK        -0.4209 
     25 C          24.1229   -1.3748   -6.3975 C.2       3 UNK         0.4942 
     26 O          23.7454   -0.5221   -7.2015 O.2       3 UNK        -0.5208 
     27 CA         23.1533   -1.8603   -5.3043 C.3       3 UNK         0.0250 
     28 CB         22.4322   -3.1412   -5.7526 C.3       3 UNK        -0.1990 
     29 N          23.8002   -2.0895   -4.0082 N.am      3 UNK        -0.4232 
     30 C          24.4248   -1.1415   -3.2968 C.2       2 UNK         0.4993 
     31 O          24.5028    0.0365   -3.6487 O.2       2 UNK        -0.5286 
     32 CA         25.1157   -1.5745   -1.9929 C.3       2 UNK         0.0209 
     33 CB         24.1173   -1.5239   -0.8252 C.3       2 UNK        -0.1931 
     34 N          25.8016   -2.8778   -1.9889 N.am      2 UNK        -0.4546 
     35 C          26.6264   -3.3708   -2.9274 C.2       1 UNK         0.5154 
     36 O          26.7211   -2.9106   -4.0675 O.2       1 UNK        -0.5181 
     37 C          26.6913    2.5271   -5.2433 C.2       5 UNK         0.5014 
     38 O          27.1978    3.5726   -5.6496 O.2       5 UNK        -0.5248 
     39 N          25.3679    2.3212   -5.1534 N.am      6 UNK        -0.4434 
     40 CA         24.3340    3.2695   -5.5787 C.3       6 UNK         0.0363 
     41 CB         22.9529    2.7174   -5.1920 C.3       6 UNK        -0.1936 
     42 C          24.3841    3.5899   -7.0842 C.2       6 UNK         0.5081 
     43 O          24.1160    4.7274   -7.4708 O.2       6 UNK        -0.5248 
     44 N          24.7542    2.5941   -7.9008 N.am      7 UNK        -0.4718 
     45 CA         24.9751    2.7328   -9.3430 C.3       7 UNK         0.0273 
     46 CB         24.8378    1.3476   -9.9969 C.3       7 UNK        -0.1935 
     47 C          26.3392    3.3557   -9.7022 C.2       7 UNK         0.5018 
     48 O          26.5516    3.6723  -10.8733 O.2       7 UNK        -0.5186 
     49 N          27.2405    3.4890   -8.7150 N.am      8 UNK        -0.4240 
     50 CA         28.6436    3.9109   -8.8285 C.3       8 UNK         0.0235 
     51 CB         28.7447    5.3875   -9.2666 C.3       8 UNK        -0.2000 
     52 C          29.4924    2.9607   -9.7006 C.2       8 UNK         0.4941 
     53 O          30.4234    3.4086  -10.3726 O.2       8 UNK        -0.5273 
     54 N          29.1524    1.6662   -9.6716 N.am      9 UNK        -0.4262 
     55 CA         29.7827    0.5973  -10.4481 C.3       9 UNK         0.0264 
     56 CB         28.6734   -0.1969  -11.1590 C.3       9 UNK        -0.1955 
     57 C          30.6276   -0.3477   -9.5767 C.2       9 UNK         0.5031 
     58 O          31.4065   -1.1262  -10.1309 O.2       9 UNK        -0.5390 
     59 N          30.4455   -0.2955   -8.2483 N.am      10 UNK        -0.4204 
     60 CA         31.0828   -1.1718   -7.2628 C.3       10 UNK         0.0237 
     61 CB         30.6300   -0.7800   -5.8499 C.3       10 UNK        -0.1985 
     62 C          32.6165   -1.1674   -7.3307 C.2       10 UNK         0.4970 
     63 O          33.2284   -0.1039   -7.2109 O.2       10 UNK        -0.4914 
     64 N          33.1870   -2.3679   -7.4838 N.am      11 UNK        -0.4285 
     65 CA         34.6300   -2.6582   -7.4528 C.3       11 UNK         0.1007 
     66 C          35.4534   -2.0298   -8.6192 C.2       11 UNK         0.5703 
     67 N          34.8282   -1.5651   -9.6955 N.am      11 UNK        -0.7361 
     68 O          36.6810   -1.9953   -8.5685 O.2       11 UNK        -0.4986 
     69 C69        35.2603   -2.4072   -6.0507 C.3       12 UNK        -0.0947 
     70 S70        34.3638   -3.2870   -4.7203 S.3       12 UNK        -0.2240 
     71 C71        34.5572   -2.1589   -3.3043 C.3       12 UNK         0.0194 
     72 H72        29.2459   -3.0149   -4.3503 H         1 UNK         0.0906 
     73 H73        30.5948   -4.0215   -3.8010 H         1 UNK         0.0906 
     74 H74        30.2854   -3.8095   -5.5165 H         1 UNK         0.0906 
     75 H75        27.4482   -6.2211   -3.6864 H         1 UNK         0.3140 
     76 H76        26.9318   -5.1925   -1.8558 H         1 UNK         0.1085 
     77 H77        28.2432   -3.5236   -0.6634 H         1 UNK         0.0836 
     78 H78        29.1503   -3.1455   -2.0911 H         1 UNK         0.0836 
     79 H79        31.9299   -4.6311    0.3073 H         1 UNK         0.0731 
     80 H80        30.5771   -3.6397    0.7866 H         1 UNK         0.0731 
     81 H81        33.4167   -3.9370   -1.5719 H         1 UNK         0.1312 
     82 H82        32.7560   -0.1155   -3.4064 H         1 UNK         0.1406 
     83 H83        29.9972   -1.5910   -0.4829 H         1 UNK         0.1631 
     84 H84        30.7334    1.1025   -2.9998 H         1 UNK         0.0717 
     85 H85        30.1615    1.0075   -1.3419 H         1 UNK         0.0717 
     86 H86        26.8355    1.2258   -2.8281 H         1 UNK         0.0934 
     87 H87        28.3114    2.1402   -2.9764 H         1 UNK         0.0934 
     88 H88        28.5762    1.5325   -5.3235 H         1 UNK         0.0739 
     89 H89        26.7036   -0.5886   -4.8544 H         1 UNK         0.3093 
     90 H90        26.0060   -1.2688   -8.2715 H         1 UNK         0.0818 
     91 H91        27.9675   -2.7853   -6.4771 H         1 UNK         0.0819 
     92 H92        27.0291   -3.4904   -7.7892 H         1 UNK         0.0819 
     93 H93        28.2537   -2.2827   -8.1378 H         1 UNK         0.0819 
     94 H94        25.6269   -2.5242   -5.6380 H         1 UNK         0.3041 
     95 H95        22.4044   -1.0778   -5.1637 H         1 UNK         0.0784 
     96 H96        21.9261   -2.9896   -6.7072 H         1 UNK         0.0793 
     97 H97        23.1264   -3.9729   -5.8800 H         1 UNK         0.0793 
     98 H98        21.6735   -3.4434   -5.0304 H         1 UNK         0.0793 
     99 H99        23.8036   -3.0348   -3.6533 H         1 UNK         0.3024 
    100 H100       25.8874   -0.8279   -1.7973 H         1 UNK         0.1171 
    101 H101       24.6184   -1.6562    0.1338 H         1 UNK         0.0786 
    102 H102       23.6053   -0.5609   -0.7878 H         1 UNK         0.0786 
    103 H103       23.3526   -2.2965   -0.9148 H         1 UNK         0.0786 
    104 H104       25.7771   -3.3593   -1.1013 H         1 UNK         0.2977 
    105 H105       25.0406    1.4432   -4.7522 H         1 UNK         0.3127 
    106 H106       24.4972    4.2030   -5.0363 H         1 UNK         0.0770 
    107 H107       22.7470    1.7666   -5.6859 H         1 UNK         0.0814 
    108 H108       22.1605    3.4120   -5.4742 H         1 UNK         0.0814 
    109 H109       22.8768    2.5571   -4.1163 H         1 UNK         0.0814 
    110 H110       24.9121    1.6777   -7.5031 H         1 UNK         0.2983 
    111 H111       24.2011    3.3842   -9.7547 H         1 UNK         0.0947 
    112 H112       24.9100    1.4187  -11.0830 H         1 UNK         0.0806 
    113 H113       23.8755    0.8903   -9.7655 H         1 UNK         0.0806 
    114 H114       25.6216    0.6670   -9.6648 H         1 UNK         0.0806 
    115 H115       26.9564    3.2078   -7.7841 H         1 UNK         0.3000 
    116 H116       29.0579    3.8396   -7.8217 H         1 UNK         0.0850 
    117 H117       29.7740    5.7431   -9.2081 H         1 UNK         0.0810 
    118 H118       28.1437    6.0324   -8.6256 H         1 UNK         0.0810 
    119 H119       28.4108    5.5296  -10.2947 H         1 UNK         0.0810 
    120 H120       28.3976    1.3824   -9.0472 H         1 UNK         0.3040 
    121 H121       30.4444    1.0190  -11.2075 H         1 UNK         0.0766 
    122 H122       28.0878    0.4455  -11.8171 H         1 UNK         0.0812 
    123 H123       27.9882   -0.6588  -10.4467 H         1 UNK         0.0812 
    124 H124       29.0936   -0.9940  -11.7738 H         1 UNK         0.0812 
    125 H125       29.7644    0.3624   -7.8947 H         1 UNK         0.3205 
    126 H126       30.7277   -2.1848   -7.4615 H         1 UNK         0.0754 
    127 H127       31.1563   -1.3665   -5.0969 H         1 UNK         0.0769 
    128 H128       29.5707   -0.9705   -5.7049 H         1 UNK         0.0769 
    129 H129       30.8224    0.2718   -5.6355 H         1 UNK         0.0769 
    130 H130       32.5930   -3.1751   -7.6017 H         1 UNK         0.2981 
    131 H131       34.6991   -3.7307   -7.6363 H         1 UNK         0.0541 
    132 H132       35.3693   -1.1731  -10.4496 H         1 UNK         0.3459 
    133 H133       33.8194   -1.5784   -9.7493 H         1 UNK         0.3459 
    134 H134       35.2830   -1.3370   -5.8417 H         1 UNK         0.0612 
    135 H135       36.2973   -2.7460   -6.0276 H         1 UNK         0.0612 
    136 H136       34.9009   -1.1787   -3.6361 H         1 UNK         0.0624 
    137 H137       35.3379   -2.5466   -2.6484 H         1 UNK         0.0624 
@<TRIPOS>BOND
     1    1    2 1    
     2    1   72 1    
     3    1   73 1    
     4    1   74 1    
     5    2    3 2    
     6    2    4 am   BACKBONE|DICT|INTERRES
     7    4    5 1    
     8    4   75 1    
     9    5    6 1    
    10    5   35 1    
    11    5   76 1    
    12    6    7 1    
    13    6   77 1    
    14    6   78 1    
    15    7    8 1    
    16    8    9 1    
    17    8   79 1    
    18    8   80 1    
    19    9   10 ar   
    20    9   14 ar   
    21   10   11 ar   
    22   10   81 1    
    23   11   12 ar   
    24   11   71 1    
    25   12   13 ar   
    26   12   82 1    
    27   13   14 ar   
    28   13   15 1    
    29   14   83 1    
    30   15   16 1    
    31   15   84 1    
    32   15   85 1    
    33   16   17 1    
    34   17   18 1    
    35   17   86 1    
    36   17   87 1    
    37   18   19 1    
    38   18   37 1    
    39   18   88 1    
    40   19   20 am   BACKBONE|DICT|INTERRES
    41   19   89 1    
    42   20   21 2    
    43   20   22 1    
    44   22   23 1    
    45   22   24 1    
    46   22   90 1    
    47   23   91 1    
    48   23   92 1    
    49   23   93 1    
    50   24   25 am   BACKBONE|DICT|INTERRES
    51   24   94 1    
    52   25   26 2    
    53   25   27 1    
    54   27   28 1    
    55   27   29 1    
    56   27   95 1    
    57   28   96 1    
    58   28   97 1    
    59   28   98 1    
    60   29   30 am   BACKBONE|DICT|INTERRES
    61   29   99 1    
    62   30   31 2    
    63   30   32 1    
    64   32   33 1    
    65   32   34 1    
    66   32  100 1    
    67   33  101 1    
    68   33  102 1    
    69   33  103 1    
    70   34   35 am   BACKBONE|DICT|INTERRES
    71   34  104 1    
    72   35   36 2    
    73   37   38 2    
    74   37   39 am   BACKBONE|DICT|INTERRES
    75   39   40 1    
    76   39  105 1    
    77   40   41 1    
    78   40   42 1    
    79   40  106 1    
    80   41  107 1    
    81   41  108 1    
    82   41  109 1    
    83   42   43 2    
    84   42   44 am   BACKBONE|DICT|INTERRES
    85   44   45 1    
    86   44  110 1    
    87   45   46 1    
    88   45   47 1    
    89   45  111 1    
    90   46  112 1    
    91   46  113 1    
    92   46  114 1    
    93   47   48 2    
    94   47   49 am   BACKBONE|DICT|INTERRES
    95   49   50 1    
    96   49  115 1    
    97   50   51 1    
    98   50   52 1    
    99   50  116 1    
   100   51  117 1    
   101   51  118 1    
   102   51  119 1    
   103   52   53 2    
   104   52   54 am   BACKBONE|DICT|INTERRES
   105   54   55 1    
   106   54  120 1    
   107   55   56 1    
   108   55   57 1    
   109   55  121 1    
   110   56  122 1    
   111   56  123 1    
   112   56  124 1    
   113   57   58 2    
   114   57   59 am   BACKBONE|DICT|INTERRES
   115   59   60 1    
   116   59  125 1    
   117   60   61 1    
   118   60   62 1    
   119   60  126 1    
   120   61  127 1    
   121   61  128 1    
   122   61  129 1    
   123   62   63 2    
   124   62   64 am   BACKBONE|DICT|INTERRES
   125   64   65 1    
   126   64  130 1    
   127   65   66 1    
   128   65   69 1    
   129   65  131 1    
   130   66   67 am   BACKBONE|DICT|INTERRES
   131   66   68 2    
   132   67  132 1    
   133   67  133 1    
   134   69   70 1    
   135   69  134 1    
   136   69  135 1    
   137   70   71 1    
   138   71  136 1    
   139   71  137 1    
@<TRIPOS>SUBSTRUCTURE
     1 UNK         1 GROUP             0       ****    0 ROOT    
