@<TRIPOS>MOLECULE
3R137
137   139    1
SMALL
USER_CHARGES


@<TRIPOS>ATOM
      1 CA         25.4729   -5.1307    1.5308 C.3       0 UNK        -0.2020 
      2 C          26.2829   -4.0777    0.7904 C.2       0 UNK         0.4855 
      3 O          26.5724   -3.0198    1.3501 O.2       0 UNK        -0.5197 
      4 N          26.6403   -4.3466   -0.4714 N.am      1 UNK        -0.4892 
      5 CA         27.4486   -3.4849   -1.3452 C.3       1 UNK         0.0835 
      6 C6         28.1162   -4.3029   -2.4831 C.3       12 UNK        -0.0855 
      7 S7         29.4617   -5.3903   -1.9064 S.3       12 UNK        -0.2931 
      8 C8         30.8228   -4.2210   -1.5378 C.3       12 UNK         0.0378 
      9 C9         30.9609   -3.0762   -2.5395 C.ar      12 UNK        -0.0802 
     10 C10        31.2108   -3.3361   -3.8913 C.ar      12 UNK        -0.0944 
     11 C11        31.3224   -2.2848   -4.8064 C.ar      12 UNK        -0.0787 
     12 C12        31.2167   -0.9665   -4.3576 C.ar      12 UNK        -0.0862 
     13 C13        30.9530   -0.6884   -3.0127 C.ar      12 UNK        -0.0733 
     14 C14        30.8294   -1.7504   -2.1101 C.ar      12 UNK        -0.0832 
     15 C15        30.8202    0.7492   -2.5110 C.3       12 UNK         0.0240 
     16 S16        29.8895    1.8627   -3.6233 S.3       12 UNK        -0.2522 
     17 C17        28.2647    1.0425   -3.7403 C.3       12 UNK        -0.0967 
     18 CA         27.8525    0.7832   -5.2139 C.3       5 UNK         0.0660 
     19 N          27.0774   -0.4520   -5.3539 N.am      5 UNK        -0.4015 
     20 C          26.6661   -0.9933   -6.5089 C.2       4 UNK         0.4946 
     21 O          26.9017   -0.5131   -7.6155 O.2       4 UNK        -0.5353 
     22 CA         25.8012   -2.2567   -6.4120 C.3       4 UNK         0.0277 
     23 CB         26.6783   -3.5057   -6.2287 C.3       4 UNK        -0.1981 
     24 N          24.8374   -2.1519   -5.3152 N.am      4 UNK        -0.4209 
     25 C          23.6880   -1.4659   -5.3866 C.2       3 UNK         0.4942 
     26 O          23.2799   -0.9199   -6.4119 O.2       3 UNK        -0.5208 
     27 CA         22.8588   -1.3516   -4.0938 C.3       3 UNK         0.0250 
     28 CB         21.9119   -2.5541   -3.9529 C.3       3 UNK        -0.1990 
     29 N          23.6724   -1.2260   -2.8799 N.am      3 UNK        -0.4232 
     30 C          24.4638   -0.1801   -2.6035 C.2       2 UNK         0.4993 
     31 O          24.5987    0.7923   -3.3461 O.2       2 UNK        -0.5286 
     32 CA         25.2905   -0.2526   -1.3065 C.3       2 UNK         0.0209 
     33 CB         24.4295    0.1451   -0.0971 C.3       2 UNK        -0.1931 
     34 N          25.9459   -1.5415   -1.0352 N.am      2 UNK        -0.4546 
     35 C          26.6607   -2.2746   -1.9000 C.2       1 UNK         0.5154 
     36 O          26.7184   -2.0161   -3.1015 O.2       1 UNK        -0.5181 
     37 C          27.1299    2.0012   -5.8287 C.2       5 UNK         0.5014 
     38 O          27.7629    2.8101   -6.5068 O.2       5 UNK        -0.5248 
     39 N          25.8075    2.0859   -5.6206 N.am      6 UNK        -0.4434 
     40 CA         24.9314    3.0891   -6.2289 C.3       6 UNK         0.0363 
     41 CB         23.5415    3.0048   -5.5781 C.3       6 UNK        -0.1936 
     42 C          24.8109    2.9657   -7.7602 C.2       6 UNK         0.5081 
     43 O          24.5668    3.9764   -8.4202 O.2       6 UNK        -0.5248 
     44 N          24.9676    1.7485   -8.2991 N.am      7 UNK        -0.4718 
     45 CA         24.9236    1.4731   -9.7353 C.3       7 UNK         0.0273 
     46 CB         24.4400    0.0330   -9.9766 C.3       7 UNK        -0.1935 
     47 C          26.2858    1.7223  -10.4008 C.2       7 UNK         0.5018 
     48 O          26.3386    2.4155  -11.4178 O.2       7 UNK        -0.5186 
     49 N          27.3573    1.1643   -9.8231 N.am      8 UNK        -0.4240 
     50 CA         28.7264    1.2728  -10.3188 C.3       8 UNK         0.0235 
     51 CB         28.9464    0.3106  -11.5042 C.3       8 UNK        -0.2000 
     52 C          29.6989    0.9897   -9.1687 C.2       8 UNK         0.4941 
     53 O          29.9892   -0.1736   -8.8863 O.2       8 UNK        -0.5273 
     54 N          30.1903    2.0576   -8.5265 N.am      9 UNK        -0.4262 
     55 CA         31.1495    1.9897   -7.4190 C.3       9 UNK         0.0264 
     56 CB         31.2650    3.3701   -6.7527 C.3       9 UNK        -0.1955 
     57 C          32.5424    1.4837   -7.8305 C.2       9 UNK         0.5031 
     58 O          33.2276    0.8662   -7.0148 O.2       9 UNK        -0.5390 
     59 N          32.9423    1.7494   -9.0810 N.am      10 UNK        -0.4204 
     60 CA         34.2478    1.4079   -9.6517 C.3       10 UNK         0.0237 
     61 CB         34.5492    2.3799  -10.8090 C.3       10 UNK        -0.1985 
     62 C          34.3484   -0.0720  -10.0766 C.2       10 UNK         0.4970 
     63 O          34.7149   -0.3584  -11.2181 O.2       10 UNK        -0.4914 
     64 N          34.0251   -0.9876   -9.1565 N.am      11 UNK        -0.4285 
     65 CA         34.1491   -2.4426   -9.3409 C.3       11 UNK         0.1007 
     66 C          35.5983   -2.9978   -9.2056 C.2       11 UNK         0.5703 
     67 N          36.5760   -2.2143   -8.7644 N.am      11 UNK        -0.7361 
     68 O          35.8435   -4.1586   -9.5263 O.2       11 UNK        -0.4986 
     69 C69        33.1315   -3.2271   -8.4720 C.3       12 UNK        -0.0947 
     70 S70        33.2636   -2.8973   -6.6801 S.3       12 UNK        -0.2240 
     71 C71        31.5214   -2.5694   -6.2857 C.3       12 UNK         0.0194 
     72 H72        26.0043   -5.4498    2.4270 H         1 UNK         0.0906 
     73 H73        24.5104   -4.7194    1.8337 H         1 UNK         0.0906 
     74 H74        25.2876   -6.0109    0.9154 H         1 UNK         0.0906 
     75 H75        26.3630   -5.2285   -0.8794 H         1 UNK         0.3140 
     76 H76        28.2453   -3.0470   -0.7406 H         1 UNK         0.1085 
     77 H77        27.3712   -4.9167   -2.9924 H         1 UNK         0.0836 
     78 H78        28.5284   -3.6616   -3.2617 H         1 UNK         0.0836 
     79 H79        31.7609   -4.7766   -1.5063 H         1 UNK         0.0731 
     80 H80        30.6724   -3.8305   -0.5302 H         1 UNK         0.0731 
     81 H81        31.2981   -4.3584   -4.2336 H         1 UNK         0.1312 
     82 H82        31.3290   -0.1554   -5.0613 H         1 UNK         0.1406 
     83 H83        30.6359   -1.5426   -1.0664 H         1 UNK         0.1631 
     84 H84        31.8209    1.1590   -2.3695 H         1 UNK         0.0717 
     85 H85        30.3383    0.7690   -1.5323 H         1 UNK         0.0717 
     86 H86        28.3239    0.1014   -3.1937 H         1 UNK         0.0934 
     87 H87        27.5203    1.6373   -3.2070 H         1 UNK         0.0934 
     88 H88        28.7532    0.6141   -5.8057 H         1 UNK         0.0739 
     89 H89        26.8659   -0.9544   -4.4926 H         1 UNK         0.3093 
     90 H90        25.2551   -2.3637   -7.3521 H         1 UNK         0.0818 
     91 H91        27.2777   -3.4541   -5.3204 H         1 UNK         0.0819 
     92 H92        26.0744   -4.4119   -6.1820 H         1 UNK         0.0819 
     93 H93        27.3694   -3.6187   -7.0652 H         1 UNK         0.0819 
     94 H94        25.1430   -2.4932   -4.4121 H         1 UNK         0.3041 
     95 H95        22.2506   -0.4482   -4.1780 H         1 UNK         0.0784 
     96 H96        21.2782   -2.6565   -4.8352 H         1 UNK         0.0793 
     97 H97        22.4598   -3.4899   -3.8350 H         1 UNK         0.0793 
     98 H98        21.2507   -2.4404   -3.0936 H         1 UNK         0.0793 
     99 H99        23.6386   -1.9890   -2.2194 H         1 UNK         0.3024 
    100 H100       26.0881    0.4862   -1.4052 H         1 UNK         0.1171 
    101 H101       25.0335    0.2401    0.8056 H         1 UNK         0.0786 
    102 H102       23.9428    1.1078   -0.2614 H         1 UNK         0.0786 
    103 H103       23.6464   -0.5880    0.1001 H         1 UNK         0.0786 
    104 H104       25.9712   -1.8459   -0.0655 H         1 UNK         0.2977 
    105 H105       25.3683    1.4312   -4.9766 H         1 UNK         0.3127 
    106 H106       25.3521    4.0733   -6.0124 H         1 UNK         0.0770 
    107 H107       23.0870    2.0243   -5.7282 H         1 UNK         0.0814 
    108 H108       22.8645    3.7485   -6.0004 H         1 UNK         0.0814 
    109 H109       23.5945    3.1876   -4.5046 H         1 UNK         0.0814 
    110 H110       25.2140    0.9747   -7.6956 H         1 UNK         0.2983 
    111 H111       24.1988    2.1442  -10.2021 H         1 UNK         0.0947 
    112 H112       24.3533   -0.1730  -11.0442 H         1 UNK         0.0806 
    113 H113       23.4583   -0.1337   -9.5326 H         1 UNK         0.0806 
    114 H114       25.1228   -0.7066   -9.5586 H         1 UNK         0.0806 
    115 H115       27.2320    0.5965   -8.9826 H         1 UNK         0.3000 
    116 H116       28.8988    2.2928  -10.6697 H         1 UNK         0.0850 
    117 H117       29.9840    0.3349  -11.8395 H         1 UNK         0.0810 
    118 H118       28.3243    0.5794  -12.3579 H         1 UNK         0.0810 
    119 H119       28.7142   -0.7202  -11.2334 H         1 UNK         0.0810 
    120 H120       29.8581    2.9771   -8.7813 H         1 UNK         0.3040 
    121 H121       30.7546    1.2902   -6.6835 H         1 UNK         0.0766 
    122 H122       30.3027    3.7078   -6.3682 H         1 UNK         0.0812 
    123 H123       31.6363    4.1265   -7.4449 H         1 UNK         0.0812 
    124 H124       31.9516    3.3360   -5.9055 H         1 UNK         0.0812 
    125 H125       32.2967    2.2302   -9.6898 H         1 UNK         0.3205 
    126 H126       35.0103    1.5658   -8.8860 H         1 UNK         0.0754 
    127 H127       35.5422    2.2005  -11.2238 H         1 UNK         0.0769 
    128 H128       34.5265    3.4168  -10.4727 H         1 UNK         0.0769 
    129 H129       33.8309    2.2747  -11.6232 H         1 UNK         0.0769 
    130 H130       33.7398   -0.6692   -8.2357 H         1 UNK         0.2981 
    131 H131       33.8746   -2.6526  -10.3765 H         1 UNK         0.0541 
    132 H132       36.3854   -1.2647   -8.4895 H         1 UNK         0.3459 
    133 H133       37.5099   -2.5855   -8.6891 H         1 UNK         0.3459 
    134 H134       32.1233   -2.9779   -8.8071 H         1 UNK         0.0612 
    135 H135       33.2308   -4.3021   -8.6323 H         1 UNK         0.0612 
    136 H136       31.1711   -1.7258   -6.8833 H         1 UNK         0.0624 
    137 H137       30.9157   -3.4285   -6.5782 H         1 UNK         0.0624 
@<TRIPOS>BOND
     1    1    2 1    
     2    1   72 1    
     3    1   73 1    
     4    1   74 1    
     5    2    3 2    
     6    2    4 am   BACKBONE|DICT|INTERRES
     7    4    5 1    
     8    4   75 1    
     9    5    6 1    
    10    5   35 1    
    11    5   76 1    
    12    6    7 1    
    13    6   77 1    
    14    6   78 1    
    15    7    8 1    
    16    8    9 1    
    17    8   79 1    
    18    8   80 1    
    19    9   10 ar   
    20    9   14 ar   
    21   10   11 ar   
    22   10   81 1    
    23   11   12 ar   
    24   11   71 1    
    25   12   13 ar   
    26   12   82 1    
    27   13   14 ar   
    28   13   15 1    
    29   14   83 1    
    30   15   16 1    
    31   15   84 1    
    32   15   85 1    
    33   16   17 1    
    34   17   18 1    
    35   17   86 1    
    36   17   87 1    
    37   18   19 1    
    38   18   37 1    
    39   18   88 1    
    40   19   20 am   BACKBONE|DICT|INTERRES
    41   19   89 1    
    42   20   21 2    
    43   20   22 1    
    44   22   23 1    
    45   22   24 1    
    46   22   90 1    
    47   23   91 1    
    48   23   92 1    
    49   23   93 1    
    50   24   25 am   BACKBONE|DICT|INTERRES
    51   24   94 1    
    52   25   26 2    
    53   25   27 1    
    54   27   28 1    
    55   27   29 1    
    56   27   95 1    
    57   28   96 1    
    58   28   97 1    
    59   28   98 1    
    60   29   30 am   BACKBONE|DICT|INTERRES
    61   29   99 1    
    62   30   31 2    
    63   30   32 1    
    64   32   33 1    
    65   32   34 1    
    66   32  100 1    
    67   33  101 1    
    68   33  102 1    
    69   33  103 1    
    70   34   35 am   BACKBONE|DICT|INTERRES
    71   34  104 1    
    72   35   36 2    
    73   37   38 2    
    74   37   39 am   BACKBONE|DICT|INTERRES
    75   39   40 1    
    76   39  105 1    
    77   40   41 1    
    78   40   42 1    
    79   40  106 1    
    80   41  107 1    
    81   41  108 1    
    82   41  109 1    
    83   42   43 2    
    84   42   44 am   BACKBONE|DICT|INTERRES
    85   44   45 1    
    86   44  110 1    
    87   45   46 1    
    88   45   47 1    
    89   45  111 1    
    90   46  112 1    
    91   46  113 1    
    92   46  114 1    
    93   47   48 2    
    94   47   49 am   BACKBONE|DICT|INTERRES
    95   49   50 1    
    96   49  115 1    
    97   50   51 1    
    98   50   52 1    
    99   50  116 1    
   100   51  117 1    
   101   51  118 1    
   102   51  119 1    
   103   52   53 2    
   104   52   54 am   BACKBONE|DICT|INTERRES
   105   54   55 1    
   106   54  120 1    
   107   55   56 1    
   108   55   57 1    
   109   55  121 1    
   110   56  122 1    
   111   56  123 1    
   112   56  124 1    
   113   57   58 2    
   114   57   59 am   BACKBONE|DICT|INTERRES
   115   59   60 1    
   116   59  125 1    
   117   60   61 1    
   118   60   62 1    
   119   60  126 1    
   120   61  127 1    
   121   61  128 1    
   122   61  129 1    
   123   62   63 2    
   124   62   64 am   BACKBONE|DICT|INTERRES
   125   64   65 1    
   126   64  130 1    
   127   65   66 1    
   128   65   69 1    
   129   65  131 1    
   130   66   67 am   BACKBONE|DICT|INTERRES
   131   66   68 2    
   132   67  132 1    
   133   67  133 1    
   134   69   70 1    
   135   69  134 1    
   136   69  135 1    
   137   70   71 1    
   138   71  136 1    
   139   71  137 1    
@<TRIPOS>SUBSTRUCTURE
     1 UNK         1 GROUP             0       ****    0 ROOT    
