@<TRIPOS>MOLECULE
3R137
137   139    1
SMALL
USER_CHARGES


@<TRIPOS>ATOM
      1 CA         28.6077   -2.3017   -5.2856 C.3       0 UNK        -0.2020 
      2 C          27.9542   -3.5994   -4.8406 C.2       0 UNK         0.4855 
      3 O          27.3026   -4.2649   -5.6466 O.2       0 UNK        -0.5197 
      4 N          28.1352   -3.9737   -3.5689 N.am      1 UNK        -0.4892 
      5 CA         27.6212   -5.2071   -2.9658 C.3       1 UNK         0.0835 
      6 C6         28.2382   -5.4591   -1.5698 C.3       12 UNK        -0.0855 
      7 S7         30.0435   -5.6988   -1.6692 S.3       12 UNK        -0.2931 
      8 C8         30.6574   -4.4483   -0.4981 C.3       12 UNK         0.0378 
      9 C9         30.5815   -3.0246   -1.0384 C.ar      12 UNK        -0.0802 
     10 C10        31.3849   -2.6375   -2.1162 C.ar      12 UNK        -0.0944 
     11 C11        31.4227   -1.3061   -2.5448 C.ar      12 UNK        -0.0787 
     12 C12        30.6450   -0.3576   -1.8671 C.ar      12 UNK        -0.0862 
     13 C13        29.8173   -0.7317   -0.8044 C.ar      12 UNK        -0.0733 
     14 C14        29.7806   -2.0705   -0.4026 C.ar      12 UNK        -0.0832 
     15 C15        29.0246    0.3219   -0.0392 C.3       12 UNK         0.0240 
     16 S16        27.4122    0.6875   -0.8043 S.3       12 UNK        -0.2522 
     17 C17        27.8846    1.7427   -2.2181 C.3       12 UNK        -0.0967 
     18 CA         27.7046    0.9867   -3.5629 C.3       5 UNK         0.0660 
     19 N          26.2996    0.6717   -3.8349 N.am      5 UNK        -0.4015 
     20 C          25.3305    1.5084   -4.2269 C.2       4 UNK         0.4946 
     21 O          25.5195    2.6966   -4.4987 O.2       4 UNK        -0.5353 
     22 CA         23.9083    0.9111   -4.3176 C.3       4 UNK         0.0277 
     23 CB         22.8541    1.9517   -4.7422 C.3       4 UNK        -0.1981 
     24 N          23.8075   -0.2555   -5.2042 N.am      4 UNK        -0.4209 
     25 C          24.3010   -1.4752   -4.9519 C.2       3 UNK         0.4942 
     26 O          24.9659   -1.7444   -3.9480 O.2       3 UNK        -0.5208 
     27 CA         24.0301   -2.5564   -6.0106 C.3       3 UNK         0.0250 
     28 CB         24.8999   -2.3330   -7.2577 C.3       3 UNK        -0.1990 
     29 N          24.3146   -3.8853   -5.4681 N.am      3 UNK        -0.4232 
     30 C          23.4630   -4.5941   -4.7131 C.2       2 UNK         0.4993 
     31 O          22.2927   -4.2658   -4.5110 O.2       2 UNK        -0.5286 
     32 CA         23.9953   -5.8892   -4.0730 C.3       2 UNK         0.0209 
     33 CB         23.6104   -7.1095   -4.9258 C.3       2 UNK        -0.1931 
     34 N          25.4480   -5.8734   -3.8831 N.am      2 UNK        -0.4546 
     35 C          26.0795   -5.2008   -2.9109 C.2       1 UNK         0.5154 
     36 O          25.4997   -4.5920   -2.0094 O.2       1 UNK        -0.5181 
     37 C          28.3605    1.6664   -4.7829 C.2       5 UNK         0.5014 
     38 O          28.4101    1.0493   -5.8478 O.2       5 UNK        -0.5248 
     39 N          28.8120    2.9205   -4.6300 N.am      6 UNK        -0.4434 
     40 CA         29.4936    3.7310   -5.6467 C.3       6 UNK         0.0363 
     41 CB         29.9503    5.0501   -5.0018 C.3       6 UNK        -0.1936 
     42 C          28.6881    4.0048   -6.9339 C.2       6 UNK         0.5081 
     43 O          29.2673    4.4971   -7.9024 O.2       6 UNK        -0.5248 
     44 N          27.3865    3.6801   -6.9458 N.am      7 UNK        -0.4718 
     45 CA         26.5522    3.6553   -8.1492 C.3       7 UNK         0.0273 
     46 CB         25.0840    3.4570   -7.7425 C.3       7 UNK        -0.1935 
     47 C          26.9740    2.5680   -9.1581 C.2       7 UNK         0.5018 
     48 O          26.7065    2.7286  -10.3500 O.2       7 UNK        -0.5186 
     49 N          27.6128    1.4884   -8.6812 N.am      8 UNK        -0.4240 
     50 CA         28.1713    0.4312   -9.5217 C.3       8 UNK         0.0235 
     51 CB         28.3658   -0.8379   -8.6791 C.3       8 UNK        -0.2000 
     52 C          29.5155    0.8761  -10.1091 C.2       8 UNK         0.4941 
     53 O          30.3723    1.3533   -9.3623 O.2       8 UNK        -0.5273 
     54 N          29.7118    0.6451  -11.4142 N.am      9 UNK        -0.4262 
     55 CA         30.9443    0.9719  -12.1448 C.3       9 UNK         0.0264 
     56 CB         30.7277    0.7215  -13.6461 C.3       9 UNK        -0.1955 
     57 C          32.1917    0.2164  -11.6469 C.2       9 UNK         0.5031 
     58 O          33.3030    0.7280  -11.7881 O.2       9 UNK        -0.5390 
     59 N          31.9866   -0.9714  -11.0604 N.am      10 UNK        -0.4204 
     60 CA         33.0237   -1.7692  -10.4031 C.3       10 UNK         0.0237 
     61 CB         32.5058   -3.2038  -10.2078 C.3       10 UNK        -0.1985 
     62 C          33.4839   -1.1792   -9.0563 C.2       10 UNK         0.4970 
     63 O          34.6146   -1.4468   -8.6478 O.2       10 UNK        -0.4914 
     64 N          32.6116   -0.4105   -8.3913 N.am      11 UNK        -0.4285 
     65 CA         32.8958    0.2826   -7.1303 C.3       11 UNK         0.1007 
     66 C          33.3814    1.7350   -7.3866 C.2       11 UNK         0.5703 
     67 N          32.7136    2.4949   -8.2462 N.am      11 UNK        -0.7361 
     68 O          34.3818    2.1673   -6.8194 O.2       11 UNK        -0.4986 
     69 C69        31.6631    0.2279   -6.1924 C.3       12 UNK        -0.0947 
     70 S70        32.0551    0.6905   -4.4724 S.3       12 UNK        -0.2240 
     71 C71        32.3730   -0.9303   -3.6855 C.3       12 UNK         0.0194 
     72 H72        29.2201   -2.4778   -6.1690 H         1 UNK         0.0906 
     73 H73        27.8442   -1.5677   -5.5398 H         1 UNK         0.0906 
     74 H74        29.2489   -1.8791   -4.5129 H         1 UNK         0.0906 
     75 H75        28.6823   -3.3920   -2.9495 H         1 UNK         0.3140 
     76 H76        27.9263   -6.0356   -3.6096 H         1 UNK         0.1085 
     77 H77        27.8108   -6.3567   -1.1183 H         1 UNK         0.0836 
     78 H78        28.0042   -4.6367   -0.8909 H         1 UNK         0.0836 
     79 H79        30.1165   -4.5419    0.4451 H         1 UNK         0.0731 
     80 H80        31.6994   -4.6752   -0.2682 H         1 UNK         0.0731 
     81 H81        32.0118   -3.3744   -2.6004 H         1 UNK         0.1312 
     82 H82        30.6986    0.6839   -2.1439 H         1 UNK         0.1406 
     83 H83        29.1653   -2.3584    0.4394 H         1 UNK         0.1631 
     84 H84        29.6069    1.2398    0.0551 H         1 UNK         0.0717 
     85 H85        28.8479   -0.0203    0.9816 H         1 UNK         0.0717 
     86 H86        27.2660    2.6419   -2.1926 H         1 UNK         0.0934 
     87 H87        28.9122    2.0788   -2.0779 H         1 UNK         0.0934 
     88 H88        28.2131    0.0273   -3.4682 H         1 UNK         0.0739 
     89 H89        26.0239   -0.2979   -3.6885 H         1 UNK         0.3093 
     90 H90        23.6504    0.5843   -3.3077 H         1 UNK         0.0818 
     91 H91        21.8470    1.5367   -4.7006 H         1 UNK         0.0819 
     92 H92        22.8700    2.8181   -4.0794 H         1 UNK         0.0819 
     93 H93        23.0260    2.3148   -5.7554 H         1 UNK         0.0819 
     94 H94        23.3042   -0.1120   -6.0679 H         1 UNK         0.3041 
     95 H95        22.9788   -2.5005   -6.3015 H         1 UNK         0.0784 
     96 H96        24.6888   -3.0781   -8.0250 H         1 UNK         0.0793 
     97 H97        24.7225   -1.3527   -7.7016 H         1 UNK         0.0793 
     98 H98        25.9598   -2.3973   -7.0168 H         1 UNK         0.0793 
     99 H99        25.2815   -4.1904   -5.5251 H         1 UNK         0.3024 
    100 H100       23.5170   -5.9885   -3.0955 H         1 UNK         0.1171 
    101 H101       24.0635   -7.0695   -5.9172 H         1 UNK         0.0786 
    102 H102       22.5294   -7.1632   -5.0635 H         1 UNK         0.0786 
    103 H103       23.9213   -8.0400   -4.4504 H         1 UNK         0.0786 
    104 H104       26.0037   -6.3101   -4.6058 H         1 UNK         0.2977 
    105 H105       28.6711    3.3690   -3.7374 H         1 UNK         0.3127 
    106 H106       30.3848    3.1795   -5.9528 H         1 UNK         0.0770 
    107 H107       29.1035    5.6411   -4.6507 H         1 UNK         0.0814 
    108 H108       30.5022    5.6641   -5.7151 H         1 UNK         0.0814 
    109 H109       30.6133    4.8709   -4.1552 H         1 UNK         0.0814 
    110 H110       26.9741    3.3032   -6.0996 H         1 UNK         0.2983 
    111 H111       26.6472    4.6231   -8.6464 H         1 UNK         0.0947 
    112 H112       24.4271    3.5127   -8.6115 H         1 UNK         0.0806 
    113 H113       24.7571    4.2217   -7.0375 H         1 UNK         0.0806 
    114 H114       24.9281    2.4829   -7.2779 H         1 UNK         0.0806 
    115 H115       27.8473    1.4493   -7.6924 H         1 UNK         0.3000 
    116 H116       27.4698    0.2096  -10.3290 H         1 UNK         0.0850 
    117 H117       29.0834   -0.6786   -7.8734 H         1 UNK         0.0810 
    118 H118       27.4275   -1.1550   -8.2300 H         1 UNK         0.0810 
    119 H119       28.7323   -1.6654   -9.2875 H         1 UNK         0.0810 
    120 H120       28.9601    0.2422  -11.9562 H         1 UNK         0.3040 
    121 H121       31.1365    2.0374  -12.0006 H         1 UNK         0.0766 
    122 H122       29.9089    1.3263  -14.0363 H         1 UNK         0.0812 
    123 H123       30.5026   -0.3254  -13.8538 H         1 UNK         0.0812 
    124 H124       31.6198    0.9821  -14.2177 H         1 UNK         0.0812 
    125 H125       31.0417   -1.3236  -11.0182 H         1 UNK         0.3205 
    126 H126       33.8951   -1.8065  -11.0606 H         1 UNK         0.0754 
    127 H127       32.2420   -3.6641  -11.1603 H         1 UNK         0.0769 
    128 H128       31.6256   -3.2330   -9.5639 H         1 UNK         0.0769 
    129 H129       33.2676   -3.8340   -9.7463 H         1 UNK         0.0769 
    130 H130       31.7393   -0.1550   -8.8358 H         1 UNK         0.2981 
    131 H131       33.7067   -0.2429   -6.6217 H         1 UNK         0.0541 
    132 H132       31.8666    2.1467   -8.6915 H         1 UNK         0.3459 
    133 H133       33.0269    3.4345   -8.4259 H         1 UNK         0.3459 
    134 H134       31.2237   -0.7702   -6.1944 H         1 UNK         0.0612 
    135 H135       30.8812    0.8902   -6.5638 H         1 UNK         0.0612 
    136 H136       33.3881   -0.9125   -3.2872 H         1 UNK         0.0624 
    137 H137       32.3609   -1.7156   -4.4424 H         1 UNK         0.0624 
@<TRIPOS>BOND
     1    1    2 1    
     2    1   72 1    
     3    1   73 1    
     4    1   74 1    
     5    2    3 2    
     6    2    4 am   BACKBONE|DICT|INTERRES
     7    4    5 1    
     8    4   75 1    
     9    5    6 1    
    10    5   35 1    
    11    5   76 1    
    12    6    7 1    
    13    6   77 1    
    14    6   78 1    
    15    7    8 1    
    16    8    9 1    
    17    8   79 1    
    18    8   80 1    
    19    9   10 ar   
    20    9   14 ar   
    21   10   11 ar   
    22   10   81 1    
    23   11   12 ar   
    24   11   71 1    
    25   12   13 ar   
    26   12   82 1    
    27   13   14 ar   
    28   13   15 1    
    29   14   83 1    
    30   15   16 1    
    31   15   84 1    
    32   15   85 1    
    33   16   17 1    
    34   17   18 1    
    35   17   86 1    
    36   17   87 1    
    37   18   19 1    
    38   18   37 1    
    39   18   88 1    
    40   19   20 am   BACKBONE|DICT|INTERRES
    41   19   89 1    
    42   20   21 2    
    43   20   22 1    
    44   22   23 1    
    45   22   24 1    
    46   22   90 1    
    47   23   91 1    
    48   23   92 1    
    49   23   93 1    
    50   24   25 am   BACKBONE|DICT|INTERRES
    51   24   94 1    
    52   25   26 2    
    53   25   27 1    
    54   27   28 1    
    55   27   29 1    
    56   27   95 1    
    57   28   96 1    
    58   28   97 1    
    59   28   98 1    
    60   29   30 am   BACKBONE|DICT|INTERRES
    61   29   99 1    
    62   30   31 2    
    63   30   32 1    
    64   32   33 1    
    65   32   34 1    
    66   32  100 1    
    67   33  101 1    
    68   33  102 1    
    69   33  103 1    
    70   34   35 am   BACKBONE|DICT|INTERRES
    71   34  104 1    
    72   35   36 2    
    73   37   38 2    
    74   37   39 am   BACKBONE|DICT|INTERRES
    75   39   40 1    
    76   39  105 1    
    77   40   41 1    
    78   40   42 1    
    79   40  106 1    
    80   41  107 1    
    81   41  108 1    
    82   41  109 1    
    83   42   43 2    
    84   42   44 am   BACKBONE|DICT|INTERRES
    85   44   45 1    
    86   44  110 1    
    87   45   46 1    
    88   45   47 1    
    89   45  111 1    
    90   46  112 1    
    91   46  113 1    
    92   46  114 1    
    93   47   48 2    
    94   47   49 am   BACKBONE|DICT|INTERRES
    95   49   50 1    
    96   49  115 1    
    97   50   51 1    
    98   50   52 1    
    99   50  116 1    
   100   51  117 1    
   101   51  118 1    
   102   51  119 1    
   103   52   53 2    
   104   52   54 am   BACKBONE|DICT|INTERRES
   105   54   55 1    
   106   54  120 1    
   107   55   56 1    
   108   55   57 1    
   109   55  121 1    
   110   56  122 1    
   111   56  123 1    
   112   56  124 1    
   113   57   58 2    
   114   57   59 am   BACKBONE|DICT|INTERRES
   115   59   60 1    
   116   59  125 1    
   117   60   61 1    
   118   60   62 1    
   119   60  126 1    
   120   61  127 1    
   121   61  128 1    
   122   61  129 1    
   123   62   63 2    
   124   62   64 am   BACKBONE|DICT|INTERRES
   125   64   65 1    
   126   64  130 1    
   127   65   66 1    
   128   65   69 1    
   129   65  131 1    
   130   66   67 am   BACKBONE|DICT|INTERRES
   131   66   68 2    
   132   67  132 1    
   133   67  133 1    
   134   69   70 1    
   135   69  134 1    
   136   69  135 1    
   137   70   71 1    
   138   71  136 1    
   139   71  137 1    
@<TRIPOS>SUBSTRUCTURE
     1 UNK         1 GROUP             0       ****    0 ROOT    
