@<TRIPOS>MOLECULE
3R137
137   139    1
SMALL
USER_CHARGES


@<TRIPOS>ATOM
      1 CA         25.1909   -6.3547    1.3954 C.3       0 UNK        -0.2020 
      2 C          25.7471   -4.9415    1.3071 C.2       0 UNK         0.4855 
      3 O          25.7483   -4.2215    2.3057 O.2       0 UNK        -0.5197 
      4 N          26.2228   -4.5401    0.1200 N.am      1 UNK        -0.4892 
      5 CA         26.7704   -3.2045   -0.1545 C.3       1 UNK         0.0835 
      6 C6         27.5522   -3.1900   -1.4930 C.3       12 UNK        -0.0855 
      7 S7         28.6862   -1.7647   -1.6487 S.3       12 UNK        -0.2931 
      8 C8         30.3242   -2.5614   -1.7323 C.3       12 UNK         0.0378 
      9 C9         30.7222   -2.8987   -3.1641 C.ar      12 UNK        -0.0802 
     10 C10        31.7249   -2.1685   -3.8103 C.ar      12 UNK        -0.0944 
     11 C11        32.1054   -2.4792   -5.1212 C.ar      12 UNK        -0.0787 
     12 C12        31.4617   -3.5279   -5.7904 C.ar      12 UNK        -0.0862 
     13 C13        30.4676   -4.2755   -5.1496 C.ar      12 UNK        -0.0733 
     14 C14        30.1123   -3.9603   -3.8362 C.ar      12 UNK        -0.0832 
     15 C15        29.8082   -5.4621   -5.8429 C.3       12 UNK         0.0240 
     16 S16        28.5782   -4.9832   -7.0992 S.3       12 UNK        -0.2522 
     17 C17        27.3620   -3.9903   -6.1588 C.3       12 UNK        -0.0967 
     18 CA         26.9848   -2.6874   -6.9060 C.3       5 UNK         0.0660 
     19 N          25.7749   -2.0560   -6.3673 N.am      5 UNK        -0.4015 
     20 C          25.0933   -1.0961   -7.0101 C.2       4 UNK         0.4946 
     21 O          25.4068   -0.6576   -8.1170 O.2       4 UNK        -0.5353 
     22 CA         23.8712   -0.5018   -6.2931 C.3       4 UNK         0.0277 
     23 CB         22.6715   -1.4594   -6.3762 C.3       4 UNK        -0.1981 
     24 N          24.0993   -0.1221   -4.8955 N.am      4 UNK        -0.4209 
     25 C          25.0536    0.6992   -4.4403 C.2       3 UNK         0.4942 
     26 O          25.9655    1.1359   -5.1404 O.2       3 UNK        -0.5208 
     27 CA         24.9876    1.1355   -2.9641 C.3       3 UNK         0.0250 
     28 CB         24.1262    2.4042   -2.8197 C.3       3 UNK        -0.1990 
     29 N          24.5752    0.1093   -1.9942 N.am      3 UNK        -0.4232 
     30 C          23.4200   -0.5620   -1.8802 C.2       2 UNK         0.4993 
     31 O          22.4814   -0.4429   -2.6698 O.2       2 UNK        -0.5286 
     32 CA         23.3123   -1.5536   -0.7007 C.3       2 UNK         0.0209 
     33 CB         22.0323   -2.4090   -0.7615 C.3       2 UNK        -0.1931 
     34 N          24.4713   -2.4486   -0.6032 N.am      2 UNK        -0.4546 
     35 C          25.6791   -2.1131   -0.1265 C.2       1 UNK         0.5154 
     36 O          25.9426   -0.9892    0.3044 O.2       1 UNK        -0.5181 
     37 C          28.1594   -1.6923   -6.9907 C.2       5 UNK         0.5014 
     38 O          28.8502   -1.6670   -8.0094 O.2       5 UNK        -0.5248 
     39 N          28.3336   -0.8566   -5.9561 N.am      6 UNK        -0.4434 
     40 CA         29.3634    0.1820   -5.9236 C.3       6 UNK         0.0363 
     41 CB         29.4549    0.8035   -4.5222 C.3       6 UNK        -0.1936 
     42 C          29.1475    1.2602   -6.9953 C.2       6 UNK         0.5081 
     43 O          30.1074    1.6564   -7.6555 O.2       6 UNK        -0.5248 
     44 N          27.8878    1.6764   -7.1827 N.am      7 UNK        -0.4718 
     45 CA         27.4595    2.5985   -8.2349 C.3       7 UNK         0.0273 
     46 CB         25.9922    2.9944   -8.0056 C.3       7 UNK        -0.1935 
     47 C          27.6593    2.0252   -9.6481 C.2       7 UNK         0.5018 
     48 O          28.1212    2.7526  -10.5274 O.2       7 UNK        -0.5186 
     49 N          27.3338    0.7373   -9.8367 N.am      8 UNK        -0.4240 
     50 CA         27.5376    0.0059  -11.0903 C.3       8 UNK         0.0235 
     51 CB         26.8059   -1.3448  -11.0337 C.3       8 UNK        -0.2000 
     52 C          29.0242   -0.1932  -11.4297 C.2       8 UNK         0.4941 
     53 O          29.4104    0.0083  -12.5819 O.2       8 UNK        -0.5273 
     54 N          29.8303   -0.5724  -10.4277 N.am      9 UNK        -0.4262 
     55 CA         31.2810   -0.7401  -10.5472 C.3       9 UNK         0.0264 
     56 CB         31.8060   -1.4995   -9.3177 C.3       9 UNK        -0.1955 
     57 C          32.0374    0.5897  -10.7090 C.2       9 UNK         0.5031 
     58 O          33.1027    0.5980  -11.3274 O.2       9 UNK        -0.5390 
     59 N          31.4890    1.6697  -10.1316 N.am      10 UNK        -0.4204 
     60 CA         32.0604    3.0167  -10.0171 C.3       10 UNK         0.0237 
     61 CB         32.2292    3.6759  -11.4027 C.3       10 UNK        -0.1985 
     62 C          33.3463    3.0387   -9.1660 C.2       10 UNK         0.4970 
     63 O          34.2541    3.8264   -9.4401 O.2       10 UNK        -0.4914 
     64 N          33.4023    2.1621   -8.1557 N.am      11 UNK        -0.4285 
     65 CA         34.5132    2.0356   -7.2056 C.3       11 UNK         0.1007 
     66 C          34.5260    3.1565   -6.1276 C.2       11 UNK         0.5703 
     67 N          35.6456    3.3365   -5.4391 N.am      11 UNK        -0.7361 
     68 O          33.5394    3.8547   -5.8975 O.2       11 UNK        -0.4986 
     69 C69        34.5787    0.6074   -6.5987 C.3       12 UNK        -0.0947 
     70 S70        33.0507    0.0793   -5.7540 S.3       12 UNK        -0.2240 
     71 C71        33.2545   -1.7308   -5.7909 C.3       12 UNK         0.0194 
     72 H72        25.7400   -6.9279    2.1421 H         1 UNK         0.0906 
     73 H73        24.1423   -6.3270    1.6908 H         1 UNK         0.0906 
     74 H74        25.2612   -6.8827    0.4445 H         1 UNK         0.0906 
     75 H75        26.2050   -5.1827   -0.6598 H         1 UNK         0.3140 
     76 H76        27.4718   -2.9740    0.6512 H         1 UNK         0.1085 
     77 H77        28.1356   -4.1071   -1.5644 H         1 UNK         0.0836 
     78 H78        26.8763   -3.2010   -2.3504 H         1 UNK         0.0836 
     79 H79        31.0546   -1.8807   -1.2923 H         1 UNK         0.0731 
     80 H80        30.3447   -3.4596   -1.1136 H         1 UNK         0.0731 
     81 H81        32.2209   -1.3608   -3.2897 H         1 UNK         0.1312 
     82 H82        31.7484   -3.7819   -6.8017 H         1 UNK         0.1406 
     83 H83        29.3593   -4.5514   -3.3378 H         1 UNK         0.1631 
     84 H84        29.3273   -6.1164   -5.1141 H         1 UNK         0.0717 
     85 H85        30.5783   -6.0663   -6.3245 H         1 UNK         0.0717 
     86 H86        26.4752   -4.6124   -6.0276 H         1 UNK         0.0934 
     87 H87        27.7230   -3.7710   -5.1544 H         1 UNK         0.0934 
     88 H88        26.7440   -2.9693   -7.9339 H         1 UNK         0.0739 
     89 H89        25.4541   -2.3571   -5.4592 H         1 UNK         0.3093 
     90 H90        23.6058    0.4137   -6.8256 H         1 UNK         0.0818 
     91 H91        21.7652   -0.9918   -5.9907 H         1 UNK         0.0819 
     92 H92        22.4710   -1.7476   -7.4093 H         1 UNK         0.0819 
     93 H93        22.8418   -2.3744   -5.8078 H         1 UNK         0.0819 
     94 H94        23.3802   -0.3857   -4.2231 H         1 UNK         0.3041 
     95 H95        26.0081    1.4013   -2.6829 H         1 UNK         0.0784 
     96 H96        24.4836    3.1954   -3.4805 H         1 UNK         0.0793 
     97 H97        23.0818    2.2182   -3.0723 H         1 UNK         0.0793 
     98 H98        24.1609    2.7929   -1.8020 H         1 UNK         0.0793 
     99 H99        25.2683   -0.0997   -1.2800 H         1 UNK         0.3024 
    100 H100       23.2634   -0.9502    0.2089 H         1 UNK         0.1171 
    101 H101       21.1405   -1.7806   -0.7699 H         1 UNK         0.0786 
    102 H102       21.9523   -3.0661    0.1048 H         1 UNK         0.0786 
    103 H103       22.0031   -3.0292   -1.6583 H         1 UNK         0.0786 
    104 H104       24.3434   -3.3902   -0.9446 H         1 UNK         0.2977 
    105 H105       27.6950   -0.8915   -5.1761 H         1 UNK         0.3127 
    106 H106       30.3104   -0.3095   -6.1429 H         1 UNK         0.0770 
    107 H107       28.5168    1.2681   -4.2183 H         1 UNK         0.0814 
    108 H108       30.2277    1.5727   -4.4910 H         1 UNK         0.0814 
    109 H109       29.7193    0.0548   -3.7768 H         1 UNK         0.0814 
    110 H110       27.1659    1.3325   -6.5517 H         1 UNK         0.2983 
    111 H111       28.0732    3.4984   -8.1550 H         1 UNK         0.0947 
    112 H112       25.6548    3.7017   -8.7643 H         1 UNK         0.0806 
    113 H113       25.8582    3.4705   -7.0340 H         1 UNK         0.0806 
    114 H114       25.3296    2.1293   -8.0458 H         1 UNK         0.0806 
    115 H115       26.8975    0.2261   -9.0739 H         1 UNK         0.3000 
    116 H116       27.0925    0.5968  -11.8938 H         1 UNK         0.0850 
    117 H117       26.9288   -1.8954  -11.9671 H         1 UNK         0.0810 
    118 H118       25.7359   -1.2088  -10.8754 H         1 UNK         0.0810 
    119 H119       27.1842   -1.9760  -10.2292 H         1 UNK         0.0810 
    120 H120       29.4194   -0.7959   -9.5213 H         1 UNK         0.3040 
    121 H121       31.4809   -1.3447  -11.4342 H         1 UNK         0.0766 
    122 H122       32.8851   -1.6473   -9.3777 H         1 UNK         0.0812 
    123 H123       31.3460   -2.4844   -9.2336 H         1 UNK         0.0812 
    124 H124       31.5992   -0.9576   -8.3938 H         1 UNK         0.0812 
    125 H125       30.6574    1.5223   -9.5666 H         1 UNK         0.3205 
    126 H126       31.3259    3.6035   -9.4632 H         1 UNK         0.0754 
    127 H127       32.5096    4.7252  -11.3042 H         1 UNK         0.0769 
    128 H128       31.2997    3.6414  -11.9714 H         1 UNK         0.0769 
    129 H129       33.0039    3.1873  -11.9942 H         1 UNK         0.0769 
    130 H130       32.5819    1.6092   -7.9488 H         1 UNK         0.2981 
    131 H131       35.4320    2.1695   -7.7802 H         1 UNK         0.0541 
    132 H132       35.6741    4.0540   -4.7316 H         1 UNK         0.3459 
    133 H133       36.4623    2.7716   -5.6122 H         1 UNK         0.3459 
    134 H134       35.4114    0.5182   -5.8992 H         1 UNK         0.0612 
    135 H135       34.7891   -0.1041   -7.3988 H         1 UNK         0.0612 
    136 H136       33.3664   -2.0507   -6.8274 H         1 UNK         0.0624 
    137 H137       34.1839   -1.9919   -5.2832 H         1 UNK         0.0624 
@<TRIPOS>BOND
     1    1    2 1    
     2    1   72 1    
     3    1   73 1    
     4    1   74 1    
     5    2    3 2    
     6    2    4 am   BACKBONE|DICT|INTERRES
     7    4    5 1    
     8    4   75 1    
     9    5    6 1    
    10    5   35 1    
    11    5   76 1    
    12    6    7 1    
    13    6   77 1    
    14    6   78 1    
    15    7    8 1    
    16    8    9 1    
    17    8   79 1    
    18    8   80 1    
    19    9   10 ar   
    20    9   14 ar   
    21   10   11 ar   
    22   10   81 1    
    23   11   12 ar   
    24   11   71 1    
    25   12   13 ar   
    26   12   82 1    
    27   13   14 ar   
    28   13   15 1    
    29   14   83 1    
    30   15   16 1    
    31   15   84 1    
    32   15   85 1    
    33   16   17 1    
    34   17   18 1    
    35   17   86 1    
    36   17   87 1    
    37   18   19 1    
    38   18   37 1    
    39   18   88 1    
    40   19   20 am   BACKBONE|DICT|INTERRES
    41   19   89 1    
    42   20   21 2    
    43   20   22 1    
    44   22   23 1    
    45   22   24 1    
    46   22   90 1    
    47   23   91 1    
    48   23   92 1    
    49   23   93 1    
    50   24   25 am   BACKBONE|DICT|INTERRES
    51   24   94 1    
    52   25   26 2    
    53   25   27 1    
    54   27   28 1    
    55   27   29 1    
    56   27   95 1    
    57   28   96 1    
    58   28   97 1    
    59   28   98 1    
    60   29   30 am   BACKBONE|DICT|INTERRES
    61   29   99 1    
    62   30   31 2    
    63   30   32 1    
    64   32   33 1    
    65   32   34 1    
    66   32  100 1    
    67   33  101 1    
    68   33  102 1    
    69   33  103 1    
    70   34   35 am   BACKBONE|DICT|INTERRES
    71   34  104 1    
    72   35   36 2    
    73   37   38 2    
    74   37   39 am   BACKBONE|DICT|INTERRES
    75   39   40 1    
    76   39  105 1    
    77   40   41 1    
    78   40   42 1    
    79   40  106 1    
    80   41  107 1    
    81   41  108 1    
    82   41  109 1    
    83   42   43 2    
    84   42   44 am   BACKBONE|DICT|INTERRES
    85   44   45 1    
    86   44  110 1    
    87   45   46 1    
    88   45   47 1    
    89   45  111 1    
    90   46  112 1    
    91   46  113 1    
    92   46  114 1    
    93   47   48 2    
    94   47   49 am   BACKBONE|DICT|INTERRES
    95   49   50 1    
    96   49  115 1    
    97   50   51 1    
    98   50   52 1    
    99   50  116 1    
   100   51  117 1    
   101   51  118 1    
   102   51  119 1    
   103   52   53 2    
   104   52   54 am   BACKBONE|DICT|INTERRES
   105   54   55 1    
   106   54  120 1    
   107   55   56 1    
   108   55   57 1    
   109   55  121 1    
   110   56  122 1    
   111   56  123 1    
   112   56  124 1    
   113   57   58 2    
   114   57   59 am   BACKBONE|DICT|INTERRES
   115   59   60 1    
   116   59  125 1    
   117   60   61 1    
   118   60   62 1    
   119   60  126 1    
   120   61  127 1    
   121   61  128 1    
   122   61  129 1    
   123   62   63 2    
   124   62   64 am   BACKBONE|DICT|INTERRES
   125   64   65 1    
   126   64  130 1    
   127   65   66 1    
   128   65   69 1    
   129   65  131 1    
   130   66   67 am   BACKBONE|DICT|INTERRES
   131   66   68 2    
   132   67  132 1    
   133   67  133 1    
   134   69   70 1    
   135   69  134 1    
   136   69  135 1    
   137   70   71 1    
   138   71  136 1    
   139   71  137 1    
@<TRIPOS>SUBSTRUCTURE
     1 UNK         1 GROUP             0       ****    0 ROOT    
