@<TRIPOS>MOLECULE
3R137
137   139    1
SMALL
USER_CHARGES


@<TRIPOS>ATOM
      1 CA         24.4143   -6.9506    0.7349 C.3       0 UNK        -0.2020 
      2 C          25.2031   -5.6804    1.0156 C.2       0 UNK         0.4855 
      3 O          24.9225   -4.9902    1.9958 O.2       0 UNK        -0.5197 
      4 N          26.1895   -5.3676    0.1639 N.am      1 UNK        -0.4892 
      5 CA         27.0341   -4.1678    0.2638 C.3       1 UNK         0.0835 
      6 C6         28.3073   -4.3070   -0.6099 C.3       12 UNK        -0.0855 
      7 S7         29.7768   -3.5247    0.1381 S.3       12 UNK        -0.2931 
      8 C8         31.1156   -4.2247   -0.8852 C.3       12 UNK         0.0378 
      9 C9         31.0884   -3.6562   -2.2963 C.ar      12 UNK        -0.0802 
     10 C10        31.8163   -2.5046   -2.6098 C.ar      12 UNK        -0.0944 
     11 C11        31.7512   -1.9379   -3.8878 C.ar      12 UNK        -0.0787 
     12 C12        30.9331   -2.5404   -4.8537 C.ar      12 UNK        -0.0862 
     13 C13        30.1862   -3.6814   -4.5447 C.ar      12 UNK        -0.0733 
     14 C14        30.2974   -4.2558   -3.2781 C.ar      12 UNK        -0.0832 
     15 C15        29.2078   -4.2600   -5.5528 C.3       12 UNK         0.0240 
     16 S16        27.4925   -3.8508   -5.0776 S.3       12 UNK        -0.2522 
     17 C17        26.6941   -3.7215   -6.7128 C.3       12 UNK        -0.0967 
     18 CA         26.4821   -2.2776   -7.2406 C.3       5 UNK         0.0660 
     19 N          25.3616   -1.5727   -6.6113 N.am      5 UNK        -0.4015 
     20 C          24.7276   -0.5493   -7.2070 C.2       4 UNK         0.4946 
     21 O          25.0150   -0.1294   -8.3296 O.2       4 UNK        -0.5353 
     22 CA         23.6158    0.1520   -6.4101 C.3       4 UNK         0.0277 
     23 CB         22.3262   -0.6849   -6.4189 C.3       4 UNK        -0.1981 
     24 N          23.9961    0.4595   -5.0299 N.am      4 UNK        -0.4209 
     25 C          25.0251    1.2410   -4.6701 C.2       3 UNK         0.4942 
     26 O          25.7675    1.8019   -5.4747 O.2       3 UNK        -0.5208 
     27 CA         25.2864    1.4227   -3.1633 C.3       3 UNK         0.0250 
     28 CB         24.7360    2.7759   -2.6856 C.3       3 UNK        -0.1990 
     29 N          24.7381    0.3520   -2.3235 N.am      3 UNK        -0.4232 
     30 C          25.1489   -0.9231   -2.3501 C.2       2 UNK         0.4993 
     31 O          26.0164   -1.3469   -3.1170 O.2       2 UNK        -0.5286 
     32 CA         24.4058   -1.8916   -1.4165 C.3       2 UNK         0.0209 
     33 CB         23.1790   -2.4823   -2.1322 C.3       2 UNK        -0.1931 
     34 N          25.2623   -2.9886   -0.9668 N.am      2 UNK        -0.4546 
     35 C          26.2549   -2.8745   -0.0722 C.2       1 UNK         0.5154 
     36 O          26.5379   -1.8206    0.5008 O.2       1 UNK        -0.5181 
     37 C          27.7636   -1.4198   -7.2425 C.2       5 UNK         0.5014 
     38 O          28.5389   -1.5210   -8.1901 O.2       5 UNK        -0.5248 
     39 N          27.9513   -0.5705   -6.2197 N.am      6 UNK        -0.4434 
     40 CA         29.0653    0.3767   -6.1305 C.3       6 UNK         0.0363 
     41 CB         29.1295    0.9923   -4.7254 C.3       6 UNK        -0.1936 
     42 C          29.0143    1.4591   -7.2167 C.2       6 UNK         0.5081 
     43 O          30.0554    1.7958   -7.7824 O.2       6 UNK        -0.5248 
     44 N          27.8050    1.9474   -7.5215 N.am      7 UNK        -0.4718 
     45 CA         27.5330    2.8477   -8.6409 C.3       7 UNK         0.0273 
     46 CB         26.1017    3.3954   -8.5263 C.3       7 UNK        -0.1935 
     47 C          27.7556    2.1689  -10.0026 C.2       7 UNK         0.5018 
     48 O          28.3600    2.7812  -10.8828 O.2       7 UNK        -0.5186 
     49 N          27.2922    0.9171  -10.1443 N.am      8 UNK        -0.4240 
     50 CA         27.4585    0.1046  -11.3545 C.3       8 UNK         0.0235 
     51 CB         26.5831   -1.1554  -11.2637 C.3       8 UNK        -0.2000 
     52 C          28.9250   -0.2692  -11.6346 C.2       8 UNK         0.4941 
     53 O          29.3704   -0.1503  -12.7766 O.2       8 UNK        -0.5273 
     54 N          29.6515   -0.6964  -10.5920 N.am      9 UNK        -0.4262 
     55 CA         31.0801   -1.0232  -10.6415 C.3       9 UNK         0.0264 
     56 CB         31.4571   -1.8334   -9.3894 C.3       9 UNK        -0.1955 
     57 C          31.9865    0.2146  -10.7573 C.2       9 UNK         0.5031 
     58 O          33.1349    0.0705  -11.1793 O.2       9 UNK        -0.5390 
     59 N          31.4618    1.3874  -10.3722 N.am      10 UNK        -0.4204 
     60 CA         32.1281    2.6883  -10.2886 C.3       10 UNK         0.0237 
     61 CB         32.5632    3.1876  -11.6833 C.3       10 UNK        -0.1985 
     62 C          33.2686    2.6689   -9.2559 C.2       10 UNK         0.4970 
     63 O          34.4151    2.9726   -9.5923 O.2       10 UNK        -0.4914 
     64 N          32.9247    2.3024   -8.0131 N.am      11 UNK        -0.4285 
     65 CA         33.8496    2.2747   -6.8657 C.3       11 UNK         0.1007 
     66 C          34.4195    3.6661   -6.4554 C.2       11 UNK         0.5703 
     67 N          33.7827    4.7773   -6.8081 N.am      11 UNK        -0.7361 
     68 O          35.4602    3.7351   -5.8057 O.2       11 UNK        -0.4986 
     69 C69        33.2232    1.5822   -5.6282 C.3       12 UNK        -0.0947 
     70 S70        32.7950   -0.1712   -5.8804 S.3       12 UNK        -0.2240 
     71 C71        32.5116   -0.6336   -4.1352 C.3       12 UNK         0.0194 
     72 H72        23.3609   -6.7131    0.5888 H         1 UNK         0.0906 
     73 H73        24.7721   -7.4664   -0.1560 H         1 UNK         0.0906 
     74 H74        24.4951   -7.6362    1.5782 H         1 UNK         0.0906 
     75 H75        26.3783   -5.9790   -0.6183 H         1 UNK         0.3140 
     76 H76        27.3383   -4.0885    1.3105 H         1 UNK         0.1085 
     77 H77        28.1456   -3.9021   -1.6112 H         1 UNK         0.0836 
     78 H78        28.5520   -5.3612   -0.7506 H         1 UNK         0.0836 
     79 H79        32.0737   -4.0016   -0.4131 H         1 UNK         0.0731 
     80 H80        31.0355   -5.3127   -0.9090 H         1 UNK         0.0731 
     81 H81        32.4155   -2.0306   -1.8440 H         1 UNK         0.1312 
     82 H82        30.8447   -2.1144   -5.8409 H         1 UNK         0.1406 
     83 H83        29.7177   -5.1375   -3.0415 H         1 UNK         0.1631 
     84 H84        29.3213   -5.3435   -5.6094 H         1 UNK         0.0717 
     85 H85        29.4285   -3.8726   -6.5487 H         1 UNK         0.0717 
     86 H86        27.2784   -4.2919   -7.4373 H         1 UNK         0.0934 
     87 H87        25.7338   -4.2368   -6.6604 H         1 UNK         0.0934 
     88 H88        26.2096   -2.4001   -8.2908 H         1 UNK         0.0739 
     89 H89        25.1163   -1.8427   -5.6687 H         1 UNK         0.3093 
     90 H90        23.4081    1.1010   -6.9093 H         1 UNK         0.0818 
     91 H91        21.5009   -0.1466   -5.9524 H         1 UNK         0.0819 
     92 H92        22.0205   -0.9183   -7.4400 H         1 UNK         0.0819 
     93 H93        22.4504   -1.6315   -5.8915 H         1 UNK         0.0819 
     94 H94        23.4333    0.0512   -4.2990 H         1 UNK         0.3041 
     95 H95        26.3689    1.4275   -3.0221 H         1 UNK         0.0784 
     96 H96        25.1514    3.5954   -3.2742 H         1 UNK         0.0793 
     97 H97        23.6503    2.8268   -2.7778 H         1 UNK         0.0793 
     98 H98        24.9954    2.9656   -1.6438 H         1 UNK         0.0793 
     99 H99        24.0077    0.6176   -1.6777 H         1 UNK         0.3024 
    100 H100       24.0698   -1.3416   -0.5341 H         1 UNK         0.1171 
    101 H101       22.4882   -1.6977   -2.4438 H         1 UNK         0.0786 
    102 H102       22.6244   -3.1555   -1.4780 H         1 UNK         0.0786 
    103 H103       23.4628   -3.0412   -3.0253 H         1 UNK         0.0786 
    104 H104       25.1167   -3.8872   -1.4020 H         1 UNK         0.2977 
    105 H105       27.2764   -0.5598   -5.4676 H         1 UNK         0.3127 
    106 H106       29.9824   -0.1816   -6.2989 H         1 UNK         0.0770 
    107 H107       28.2544    1.6037   -4.5097 H         1 UNK         0.0814 
    108 H108       30.0039    1.6355   -4.6251 H         1 UNK         0.0814 
    109 H109       29.2036    0.2214   -3.9577 H         1 UNK         0.0814 
    110 H110       27.0122    1.6786   -6.9436 H         1 UNK         0.2983 
    111 H111       28.2273    3.6881   -8.5716 H         1 UNK         0.0947 
    112 H112       25.8810    4.0864   -9.3409 H         1 UNK         0.0806 
    113 H113       25.9605    3.9385   -7.5916 H         1 UNK         0.0806 
    114 H114       25.3585    2.5981   -8.5620 H         1 UNK         0.0806 
    115 H115       26.7622    0.5069   -9.3826 H         1 UNK         0.3000 
    116 H116       27.1033    0.6998  -12.1986 H         1 UNK         0.0850 
    117 H117       26.6274   -1.7262  -12.1920 H         1 UNK         0.0810 
    118 H118       25.5374   -0.9025  -11.0871 H         1 UNK         0.0810 
    119 H119       26.9091   -1.8167  -10.4615 H         1 UNK         0.0810 
    120 H120       29.1890   -0.8424   -9.6939 H         1 UNK         0.3040 
    121 H121       31.2577   -1.6461  -11.5205 H         1 UNK         0.0766 
    122 H122       32.5081   -2.1245   -9.4113 H         1 UNK         0.0812 
    123 H123       30.8680   -2.7475   -9.3145 H         1 UNK         0.0812 
    124 H124       31.2980   -1.2573   -8.4767 H         1 UNK         0.0812 
    125 H125       30.5276    1.3653   -9.9829 H         1 UNK         0.3205 
    126 H126       31.3804    3.3876   -9.9107 H         1 UNK         0.0754 
    127 H127       32.9615    4.2013  -11.6257 H         1 UNK         0.0769 
    128 H128       31.7206    3.2086  -12.3746 H         1 UNK         0.0769 
    129 H129       33.3398    2.5592  -12.1203 H         1 UNK         0.0769 
    130 H130       31.9546    2.0625   -7.8242 H         1 UNK         0.2981 
    131 H131       34.7109    1.6785   -7.1730 H         1 UNK         0.0541 
    132 H132       32.9250    4.7308   -7.3335 H         1 UNK         0.3459 
    133 H133       34.1635    5.6707   -6.5390 H         1 UNK         0.3459 
    134 H134       32.3234    2.1146   -5.3157 H         1 UNK         0.0612 
    135 H135       33.9136    1.6267   -4.7832 H         1 UNK         0.0612 
    136 H136       31.9537    0.1675   -3.6486 H         1 UNK         0.0624 
    137 H137       33.4827   -0.6797   -3.6398 H         1 UNK         0.0624 
@<TRIPOS>BOND
     1    1    2 1    
     2    1   72 1    
     3    1   73 1    
     4    1   74 1    
     5    2    3 2    
     6    2    4 am   BACKBONE|DICT|INTERRES
     7    4    5 1    
     8    4   75 1    
     9    5    6 1    
    10    5   35 1    
    11    5   76 1    
    12    6    7 1    
    13    6   77 1    
    14    6   78 1    
    15    7    8 1    
    16    8    9 1    
    17    8   79 1    
    18    8   80 1    
    19    9   10 ar   
    20    9   14 ar   
    21   10   11 ar   
    22   10   81 1    
    23   11   12 ar   
    24   11   71 1    
    25   12   13 ar   
    26   12   82 1    
    27   13   14 ar   
    28   13   15 1    
    29   14   83 1    
    30   15   16 1    
    31   15   84 1    
    32   15   85 1    
    33   16   17 1    
    34   17   18 1    
    35   17   86 1    
    36   17   87 1    
    37   18   19 1    
    38   18   37 1    
    39   18   88 1    
    40   19   20 am   BACKBONE|DICT|INTERRES
    41   19   89 1    
    42   20   21 2    
    43   20   22 1    
    44   22   23 1    
    45   22   24 1    
    46   22   90 1    
    47   23   91 1    
    48   23   92 1    
    49   23   93 1    
    50   24   25 am   BACKBONE|DICT|INTERRES
    51   24   94 1    
    52   25   26 2    
    53   25   27 1    
    54   27   28 1    
    55   27   29 1    
    56   27   95 1    
    57   28   96 1    
    58   28   97 1    
    59   28   98 1    
    60   29   30 am   BACKBONE|DICT|INTERRES
    61   29   99 1    
    62   30   31 2    
    63   30   32 1    
    64   32   33 1    
    65   32   34 1    
    66   32  100 1    
    67   33  101 1    
    68   33  102 1    
    69   33  103 1    
    70   34   35 am   BACKBONE|DICT|INTERRES
    71   34  104 1    
    72   35   36 2    
    73   37   38 2    
    74   37   39 am   BACKBONE|DICT|INTERRES
    75   39   40 1    
    76   39  105 1    
    77   40   41 1    
    78   40   42 1    
    79   40  106 1    
    80   41  107 1    
    81   41  108 1    
    82   41  109 1    
    83   42   43 2    
    84   42   44 am   BACKBONE|DICT|INTERRES
    85   44   45 1    
    86   44  110 1    
    87   45   46 1    
    88   45   47 1    
    89   45  111 1    
    90   46  112 1    
    91   46  113 1    
    92   46  114 1    
    93   47   48 2    
    94   47   49 am   BACKBONE|DICT|INTERRES
    95   49   50 1    
    96   49  115 1    
    97   50   51 1    
    98   50   52 1    
    99   50  116 1    
   100   51  117 1    
   101   51  118 1    
   102   51  119 1    
   103   52   53 2    
   104   52   54 am   BACKBONE|DICT|INTERRES
   105   54   55 1    
   106   54  120 1    
   107   55   56 1    
   108   55   57 1    
   109   55  121 1    
   110   56  122 1    
   111   56  123 1    
   112   56  124 1    
   113   57   58 2    
   114   57   59 am   BACKBONE|DICT|INTERRES
   115   59   60 1    
   116   59  125 1    
   117   60   61 1    
   118   60   62 1    
   119   60  126 1    
   120   61  127 1    
   121   61  128 1    
   122   61  129 1    
   123   62   63 2    
   124   62   64 am   BACKBONE|DICT|INTERRES
   125   64   65 1    
   126   64  130 1    
   127   65   66 1    
   128   65   69 1    
   129   65  131 1    
   130   66   67 am   BACKBONE|DICT|INTERRES
   131   66   68 2    
   132   67  132 1    
   133   67  133 1    
   134   69   70 1    
   135   69  134 1    
   136   69  135 1    
   137   70   71 1    
   138   71  136 1    
   139   71  137 1    
@<TRIPOS>SUBSTRUCTURE
     1 UNK         1 GROUP             0       ****    0 ROOT    
