@<TRIPOS>MOLECULE
3R137
137   139    1
SMALL
USER_CHARGES


@<TRIPOS>ATOM
      1 CA         26.3000   -4.1780   -8.0800 C.3       0 UNK        -0.2020 
      2 C          26.3812   -4.8145   -6.7007 C.2       0 UNK         0.4855 
      3 O          26.0326   -5.9856   -6.5502 O.2       0 UNK        -0.5197 
      4 N          26.8247   -4.0523   -5.6924 N.am      1 UNK        -0.4892 
      5 CA         26.8545   -4.4879   -4.2867 C.3       1 UNK         0.0835 
      6 C6         27.9727   -3.7833   -3.4768 C.3       12 UNK        -0.0855 
      7 S7         29.6348   -4.3661   -3.9542 S.3       12 UNK        -0.2931 
      8 C8         30.2016   -3.0442   -5.0649 C.3       12 UNK         0.0378 
      9 C9         30.9021   -1.9152   -4.3260 C.ar      12 UNK        -0.0802 
     10 C10        32.2873   -1.9430   -4.1502 C.ar      12 UNK        -0.0944 
     11 C11        32.9471   -0.8622   -3.5601 C.ar      12 UNK        -0.0787 
     12 C12        32.2079    0.2475   -3.1389 C.ar      12 UNK        -0.0862 
     13 C13        30.8177    0.2880   -3.2929 C.ar      12 UNK        -0.0733 
     14 C14        30.1745   -0.8107   -3.8787 C.ar      12 UNK        -0.0832 
     15 C15        30.0768    1.5600   -2.8674 C.3       12 UNK         0.0240 
     16 S16        28.2900    1.3838   -2.5232 S.3       12 UNK        -0.2522 
     17 C17        27.5799    1.3462   -4.2036 C.3       12 UNK        -0.0967 
     18 CA         26.3744    0.3726   -4.2765 C.3       5 UNK         0.0660 
     19 N          25.1752    0.8588   -3.5741 N.am      5 UNK        -0.4015 
     20 C          24.4759    1.9850   -3.7909 C.2       4 UNK         0.4946 
     21 O          24.7544    2.7846   -4.6864 O.2       4 UNK        -0.5353 
     22 CA         23.2402    2.2565   -2.9063 C.3       4 UNK         0.0277 
     23 CB         22.0937    2.8902   -3.7168 C.3       4 UNK        -0.1981 
     24 N          22.7411    1.0363   -2.2698 N.am      4 UNK        -0.4209 
     25 C          22.9235    0.6885   -0.9884 C.2       3 UNK         0.4942 
     26 O          23.4609    1.4097   -0.1478 O.2       3 UNK        -0.5208 
     27 CA         22.4602   -0.7279   -0.5863 C.3       3 UNK         0.0250 
     28 CB         21.0473   -0.6800    0.0177 C.3       3 UNK        -0.1990 
     29 N          22.4858   -1.6988   -1.6915 N.am      3 UNK        -0.4232 
     30 C          23.5855   -2.0319   -2.3821 C.2       2 UNK         0.4993 
     31 O          24.7035   -1.5754   -2.1307 O.2       2 UNK        -0.5286 
     32 CA         23.3826   -2.9412   -3.6073 C.3       2 UNK         0.0209 
     33 CB         22.6090   -2.1938   -4.7088 C.3       2 UNK        -0.1931 
     34 N          24.6610   -3.3788   -4.1691 N.am      2 UNK        -0.4546 
     35 C          25.4834   -4.2780   -3.6106 C.2       1 UNK         0.5154 
     36 O          25.1962   -4.9310   -2.6056 O.2       1 UNK        -0.5181 
     37 C          26.1081   -0.1022   -5.7201 C.2       5 UNK         0.5014 
     38 O          26.5926   -1.1760   -6.0899 O.2       5 UNK        -0.5248 
     39 N          25.3332    0.6785   -6.4841 N.am      6 UNK        -0.4434 
     40 CA         24.9818    0.5011   -7.8964 C.3       6 UNK         0.0363 
     41 CB         24.1576   -0.7889   -8.1095 C.3       6 UNK        -0.1936 
     42 C          26.2069    0.6340   -8.8247 C.2       6 UNK         0.5081 
     43 O          27.1770    1.3029   -8.4654 O.2       6 UNK        -0.5248 
     44 N          26.1415    0.0313  -10.0204 N.am      7 UNK        -0.4718 
     45 CA         27.1377    0.1642  -11.0945 C.3       7 UNK         0.0273 
     46 CB         26.6350   -0.5847  -12.3393 C.3       7 UNK        -0.1935 
     47 C          28.5598   -0.3024  -10.7299 C.2       7 UNK         0.5018 
     48 O          29.5247    0.1767  -11.3263 O.2       7 UNK        -0.5186 
     49 N          28.6677   -1.2076   -9.7494 N.am      8 UNK        -0.4240 
     50 CA         29.9303   -1.7382   -9.2338 C.3       8 UNK         0.0235 
     51 CB         29.6846   -3.1383   -8.6483 C.3       8 UNK        -0.2000 
     52 C          30.6390   -0.8107   -8.2249 C.2       8 UNK         0.4941 
     53 O          31.6941   -1.1980   -7.7244 O.2       8 UNK        -0.5273 
     54 N          30.0890    0.3875   -7.9540 N.am      9 UNK        -0.4262 
     55 CA         30.6754    1.4168   -7.0815 C.3       9 UNK         0.0264 
     56 CB         29.7463    2.6411   -7.0274 C.3       9 UNK        -0.1955 
     57 C          32.0881    1.8745   -7.4880 C.2       9 UNK         0.5031 
     58 O          32.8700    2.2645   -6.6199 O.2       9 UNK        -0.5390 
     59 N          32.4058    1.8065   -8.7883 N.am      10 UNK        -0.4204 
     60 CA         33.7289    2.0795   -9.3548 C.3       10 UNK         0.0237 
     61 CB         33.5643    2.4560  -10.8395 C.3       10 UNK        -0.1985 
     62 C          34.6888    0.8896   -9.1428 C.2       10 UNK         0.4970 
     63 O          35.2192    0.3425  -10.1114 O.2       10 UNK        -0.4914 
     64 N          34.8733    0.4963   -7.8781 N.am      11 UNK        -0.4285 
     65 CA         35.7021   -0.6382   -7.4472 C.3       11 UNK         0.1007 
     66 C          37.2398   -0.3959   -7.4918 C.2       11 UNK         0.5703 
     67 N          37.7176    0.8213   -7.7247 N.am      11 UNK        -0.7361 
     68 O          38.0143   -1.3360   -7.3285 O.2       11 UNK        -0.4986 
     69 C69        35.2229   -1.1935   -6.0801 C.3       12 UNK        -0.0947 
     70 S70        35.3143    0.0150   -4.7134 S.3       12 UNK        -0.2240 
     71 C71        34.4585   -0.8851   -3.3827 C.3       12 UNK         0.0194 
     72 H72        26.9316   -4.7217   -8.7818 H         1 UNK         0.0906 
     73 H73        25.2751   -4.2131   -8.4484 H         1 UNK         0.0906 
     74 H74        26.6195   -3.1374   -8.0674 H         1 UNK         0.0906 
     75 H75        27.0320   -3.0712   -5.8627 H         1 UNK         0.3140 
     76 H76        27.0471   -5.5629   -4.2520 H         1 UNK         0.1085 
     77 H77        27.8998   -2.7003   -3.5727 H         1 UNK         0.0836 
     78 H78        27.8654   -3.9940   -2.4105 H         1 UNK         0.0836 
     79 H79        29.3570   -2.6478   -5.6279 H         1 UNK         0.0731 
     80 H80        30.8819   -3.4746   -5.8012 H         1 UNK         0.0731 
     81 H81        32.8544   -2.7960   -4.4969 H         1 UNK         0.1312 
     82 H82        32.7242    1.0915   -2.7017 H         1 UNK         0.1406 
     83 H83        29.1076   -0.8133   -4.0211 H         1 UNK         0.1631 
     84 H84        30.2183    2.3236   -3.6338 H         1 UNK         0.0717 
     85 H85        30.5405    1.9506   -1.9602 H         1 UNK         0.0717 
     86 H86        27.3006    2.3592   -4.4953 H         1 UNK         0.0934 
     87 H87        28.3585    1.0499   -4.9058 H         1 UNK         0.0934 
     88 H88        26.6545   -0.5339   -3.7378 H         1 UNK         0.0739 
     89 H89        24.8633    0.2323   -2.8377 H         1 UNK         0.3093 
     90 H90        23.5520    2.9753   -2.1458 H         1 UNK         0.0818 
     91 H91        22.3952    3.8471   -4.1451 H         1 UNK         0.0819 
     92 H92        21.7780    2.2487   -4.5405 H         1 UNK         0.0819 
     93 H93        21.2237    3.0823   -3.0885 H         1 UNK         0.0819 
     94 H94        22.2752    0.3759   -2.8749 H         1 UNK         0.3041 
     95 H95        23.1491   -1.0868    0.1814 H         1 UNK         0.0784 
     96 H96        21.0057    0.0147    0.8580 H         1 UNK         0.0793 
     97 H97        20.3056   -0.3528   -0.7121 H         1 UNK         0.0793 
     98 H98        20.7422   -1.6569    0.3937 H         1 UNK         0.0793 
     99 H99        21.5996   -2.1080   -1.9532 H         1 UNK         0.3024 
    100 H100       22.8160   -3.8219   -3.2958 H         1 UNK         0.1171 
    101 H101       23.1151   -1.2737   -5.0039 H         1 UNK         0.0786 
    102 H102       22.4933   -2.8111   -5.6002 H         1 UNK         0.0786 
    103 H103       21.6052   -1.9236   -4.3789 H         1 UNK         0.0786 
    104 H104       24.9936   -2.8851   -4.9844 H         1 UNK         0.2977 
    105 H105       25.0391    1.5586   -6.0643 H         1 UNK         0.3127 
    106 H106       24.3356    1.3441   -8.1450 H         1 UNK         0.0770 
    107 H107       24.7507   -1.6868   -7.9462 H         1 UNK         0.0814 
    108 H108       23.7454   -0.8422   -9.1174 H         1 UNK         0.0814 
    109 H109       23.3092   -0.8258   -7.4271 H         1 UNK         0.0814 
    110 H110       25.3110   -0.4987  -10.2426 H         1 UNK         0.2983 
    111 H111       27.2093    1.2260  -11.3406 H         1 UNK         0.0947 
    112 H112       27.3390   -0.4847  -13.1669 H         1 UNK         0.0806 
    113 H113       25.6789   -0.1893  -12.6831 H         1 UNK         0.0806 
    114 H114       26.5095   -1.6508  -12.1460 H         1 UNK         0.0806 
    115 H115       27.8197   -1.5136   -9.2963 H         1 UNK         0.3000 
    116 H116       30.6199   -1.8549  -10.0729 H         1 UNK         0.0850 
    117 H117       30.6131   -3.5848   -8.2901 H         1 UNK         0.0810 
    118 H118       29.2768   -3.8143   -9.3998 H         1 UNK         0.0810 
    119 H119       28.9905   -3.1078   -7.8115 H         1 UNK         0.0810 
    120 H120       29.1914    0.6151   -8.3690 H         1 UNK         0.3040 
    121 H121       30.7499    0.9885   -6.0813 H         1 UNK         0.0766 
    122 H122       29.6463    3.1121   -8.0062 H         1 UNK         0.0812 
    123 H123       30.1325    3.3948   -6.3397 H         1 UNK         0.0812 
    124 H124       28.7460    2.3810   -6.6886 H         1 UNK         0.0812 
    125 H125       31.7084    1.4459   -9.4240 H         1 UNK         0.3205 
    126 H126       34.1627    2.9397   -8.8403 H         1 UNK         0.0754 
    127 H127       34.5267    2.7023  -11.2902 H         1 UNK         0.0769 
    128 H128       32.9213    3.3284  -10.9582 H         1 UNK         0.0769 
    129 H129       33.1310    1.6391  -11.4186 H         1 UNK         0.0769 
    130 H130       34.3855    0.9973   -7.1425 H         1 UNK         0.2981 
    131 H131       35.5290   -1.4361   -8.1718 H         1 UNK         0.0541 
    132 H132       38.7147    0.9634   -7.7575 H         1 UNK         0.3459 
    133 H133       37.0904    1.5982   -7.8548 H         1 UNK         0.3459 
    134 H134       35.7918   -2.0825   -5.8024 H         1 UNK         0.0612 
    135 H135       34.1876   -1.5213   -6.1802 H         1 UNK         0.0612 
    136 H136       34.8279   -1.9108   -3.3378 H         1 UNK         0.0624 
    137 H137       34.7186   -0.4263   -2.4277 H         1 UNK         0.0624 
@<TRIPOS>BOND
     1    1    2 1    
     2    1   72 1    
     3    1   73 1    
     4    1   74 1    
     5    2    3 2    
     6    2    4 am   BACKBONE|DICT|INTERRES
     7    4    5 1    
     8    4   75 1    
     9    5    6 1    
    10    5   35 1    
    11    5   76 1    
    12    6    7 1    
    13    6   77 1    
    14    6   78 1    
    15    7    8 1    
    16    8    9 1    
    17    8   79 1    
    18    8   80 1    
    19    9   10 ar   
    20    9   14 ar   
    21   10   11 ar   
    22   10   81 1    
    23   11   12 ar   
    24   11   71 1    
    25   12   13 ar   
    26   12   82 1    
    27   13   14 ar   
    28   13   15 1    
    29   14   83 1    
    30   15   16 1    
    31   15   84 1    
    32   15   85 1    
    33   16   17 1    
    34   17   18 1    
    35   17   86 1    
    36   17   87 1    
    37   18   19 1    
    38   18   37 1    
    39   18   88 1    
    40   19   20 am   BACKBONE|DICT|INTERRES
    41   19   89 1    
    42   20   21 2    
    43   20   22 1    
    44   22   23 1    
    45   22   24 1    
    46   22   90 1    
    47   23   91 1    
    48   23   92 1    
    49   23   93 1    
    50   24   25 am   BACKBONE|DICT|INTERRES
    51   24   94 1    
    52   25   26 2    
    53   25   27 1    
    54   27   28 1    
    55   27   29 1    
    56   27   95 1    
    57   28   96 1    
    58   28   97 1    
    59   28   98 1    
    60   29   30 am   BACKBONE|DICT|INTERRES
    61   29   99 1    
    62   30   31 2    
    63   30   32 1    
    64   32   33 1    
    65   32   34 1    
    66   32  100 1    
    67   33  101 1    
    68   33  102 1    
    69   33  103 1    
    70   34   35 am   BACKBONE|DICT|INTERRES
    71   34  104 1    
    72   35   36 2    
    73   37   38 2    
    74   37   39 am   BACKBONE|DICT|INTERRES
    75   39   40 1    
    76   39  105 1    
    77   40   41 1    
    78   40   42 1    
    79   40  106 1    
    80   41  107 1    
    81   41  108 1    
    82   41  109 1    
    83   42   43 2    
    84   42   44 am   BACKBONE|DICT|INTERRES
    85   44   45 1    
    86   44  110 1    
    87   45   46 1    
    88   45   47 1    
    89   45  111 1    
    90   46  112 1    
    91   46  113 1    
    92   46  114 1    
    93   47   48 2    
    94   47   49 am   BACKBONE|DICT|INTERRES
    95   49   50 1    
    96   49  115 1    
    97   50   51 1    
    98   50   52 1    
    99   50  116 1    
   100   51  117 1    
   101   51  118 1    
   102   51  119 1    
   103   52   53 2    
   104   52   54 am   BACKBONE|DICT|INTERRES
   105   54   55 1    
   106   54  120 1    
   107   55   56 1    
   108   55   57 1    
   109   55  121 1    
   110   56  122 1    
   111   56  123 1    
   112   56  124 1    
   113   57   58 2    
   114   57   59 am   BACKBONE|DICT|INTERRES
   115   59   60 1    
   116   59  125 1    
   117   60   61 1    
   118   60   62 1    
   119   60  126 1    
   120   61  127 1    
   121   61  128 1    
   122   61  129 1    
   123   62   63 2    
   124   62   64 am   BACKBONE|DICT|INTERRES
   125   64   65 1    
   126   64  130 1    
   127   65   66 1    
   128   65   69 1    
   129   65  131 1    
   130   66   67 am   BACKBONE|DICT|INTERRES
   131   66   68 2    
   132   67  132 1    
   133   67  133 1    
   134   69   70 1    
   135   69  134 1    
   136   69  135 1    
   137   70   71 1    
   138   71  136 1    
   139   71  137 1    
@<TRIPOS>SUBSTRUCTURE
     1 UNK         1 GROUP             0       ****    0 ROOT    
