@<TRIPOS>MOLECULE
3R137
137   139    1
SMALL
USER_CHARGES


@<TRIPOS>ATOM
      1 CA         29.9728   -5.1015   -2.4881 C.3       0 UNK        -0.2020 
      2 C          29.2903   -4.2876   -1.3988 C.2       0 UNK         0.4855 
      3 O          28.9224   -4.8374   -0.3608 O.2       0 UNK        -0.5197 
      4 N          29.1250   -2.9789   -1.6287 N.am      1 UNK        -0.4892 
      5 CA         28.5369   -2.0093   -0.6932 C.3       1 UNK         0.0835 
      6 C6         28.6762   -0.5471   -1.1954 C.3       12 UNK        -0.0855 
      7 S7         30.3439   -0.0928   -1.7834 S.3       12 UNK        -0.2931 
      8 C8         30.0045    0.3619   -3.5165 C.3       12 UNK         0.0378 
      9 C9         30.1171   -0.8331   -4.4537 C.ar      12 UNK        -0.0802 
     10 C10        31.2511   -0.9730   -5.2584 C.ar      12 UNK        -0.0944 
     11 C11        31.3687   -2.0428   -6.1489 C.ar      12 UNK        -0.0787 
     12 C12        30.3465   -2.9920   -6.2152 C.ar      12 UNK        -0.0862 
     13 C13        29.1933   -2.8505   -5.4385 C.ar      12 UNK        -0.0733 
     14 C14        29.0792   -1.7639   -4.5649 C.ar      12 UNK        -0.0832 
     15 C15        28.0699   -3.8673   -5.5674 C.3       12 UNK         0.0240 
     16 S16        26.8802   -3.3779   -6.8546 S.3       12 UNK        -0.2522 
     17 C17        25.8656   -2.1787   -5.9345 C.3       12 UNK        -0.0967 
     18 CA         24.5855   -1.7770   -6.7034 C.3       5 UNK         0.0660 
     19 N          23.5214   -1.3510   -5.7910 N.am      5 UNK        -0.4015 
     20 C          22.2356   -1.2023   -6.1467 C.2       4 UNK         0.4946 
     21 O          21.8310   -1.3795   -7.2973 O.2       4 UNK        -0.5353 
     22 CA         21.2049   -0.8450   -5.0567 C.3       4 UNK         0.0277 
     23 CB         20.1091   -1.9231   -4.9733 C.3       4 UNK        -0.1981 
     24 N          21.7903   -0.6783   -3.7254 N.am      4 UNK        -0.4209 
     25 C          22.2879    0.4668   -3.2418 C.2       3 UNK         0.4942 
     26 O          22.2957    1.5283   -3.8655 O.2       3 UNK        -0.5208 
     27 CA         22.8845    0.4211   -1.8220 C.3       3 UNK         0.0250 
     28 CB         21.8531    0.9111   -0.7923 C.3       3 UNK        -0.1990 
     29 N          23.3880   -0.8977   -1.4122 N.am      3 UNK        -0.4232 
     30 C          24.4110   -1.5322   -1.9993 C.2       2 UNK         0.4993 
     31 O          24.9828   -1.1151   -3.0094 O.2       2 UNK        -0.5286 
     32 CA         24.8642   -2.8635   -1.3800 C.3       2 UNK         0.0209 
     33 CB         24.3651   -4.0530   -2.2169 C.3       2 UNK        -0.1931 
     34 N          26.3254   -2.8828   -1.3294 N.am      2 UNK        -0.4546 
     35 C          27.0458   -2.2641   -0.3838 C.2       1 UNK         0.5154 
     36 O          26.5655   -1.8396    0.6688 O.2       1 UNK        -0.5181 
     37 C          24.8861   -0.7011   -7.7661 C.2       5 UNK         0.5014 
     38 O          25.2153    0.4326   -7.4111 O.2       5 UNK        -0.5248 
     39 N          24.8057   -1.0855   -9.0469 N.am      6 UNK        -0.4434 
     40 CA         25.1285   -0.2271  -10.1915 C.3       6 UNK         0.0363 
     41 CB         24.4924   -0.8185  -11.4600 C.3       6 UNK        -0.1936 
     42 C          26.6424   -0.0309  -10.3936 C.2       6 UNK         0.5081 
     43 O          27.0457    0.9428  -11.0290 O.2       6 UNK        -0.5248 
     44 N          27.4561   -0.9468   -9.8501 N.am      7 UNK        -0.4718 
     45 CA         28.9191   -0.9419   -9.9464 C.3       7 UNK         0.0273 
     46 CB         29.4312   -2.3801   -9.7633 C.3       7 UNK        -0.1935 
     47 C          29.6105    0.0203   -8.9613 C.2       7 UNK         0.5018 
     48 O          30.8395    0.0821   -8.9606 O.2       7 UNK        -0.5186 
     49 N          28.8340    0.7648   -8.1589 N.am      8 UNK        -0.4240 
     50 CA         29.2843    1.6669   -7.0905 C.3       8 UNK         0.0235 
     51 CB         28.0531    2.2614   -6.3880 C.3       8 UNK        -0.2000 
     52 C          30.2807    2.7746   -7.4893 C.2       8 UNK         0.4941 
     53 O          30.9151    3.3485   -6.6036 O.2       8 UNK        -0.5273 
     54 N          30.4180    3.0531   -8.7923 N.am      9 UNK        -0.4262 
     55 CA         31.4438    3.9362   -9.3515 C.3       9 UNK         0.0264 
     56 CB         31.0375    4.3268  -10.7822 C.3       9 UNK        -0.1955 
     57 C          32.8602    3.3219   -9.3447 C.2       9 UNK         0.5031 
     58 O          33.8305    4.0776   -9.4263 O.2       9 UNK        -0.5390 
     59 N          32.9639    1.9869   -9.2756 N.am      10 UNK        -0.4204 
     60 CA         34.2195    1.2333   -9.2472 C.3       10 UNK         0.0237 
     61 CB         34.0757    0.0167  -10.1854 C.3       10 UNK        -0.1985 
     62 C          34.5862    0.8339   -7.8031 C.2       10 UNK         0.4970 
     63 O          34.0773    1.4286   -6.8507 O.2       10 UNK        -0.4914 
     64 N          35.4631   -0.1728   -7.6679 N.am      11 UNK        -0.4285 
     65 CA         35.9577   -0.7443   -6.3982 C.3       11 UNK         0.1007 
     66 C          36.8501    0.2219   -5.5565 C.2       11 UNK         0.5703 
     67 N          37.3774    1.3003   -6.1249 N.am      11 UNK        -0.7361 
     68 O          37.1052   -0.0242   -4.3797 O.2       11 UNK        -0.4986 
     69 C69        34.8408   -1.4264   -5.5488 C.3       12 UNK        -0.0947 
     70 S70        34.0469   -2.8477   -6.3796 S.3       12 UNK        -0.2240 
     71 C71        32.5451   -2.1229   -7.1107 C.3       12 UNK         0.0194 
     72 H72        29.2555   -5.7695   -2.9638 H         1 UNK         0.0906 
     73 H73        30.4118   -4.4662   -3.2574 H         1 UNK         0.0906 
     74 H74        30.7709   -5.7074   -2.0599 H         1 UNK         0.0906 
     75 H75        29.5141   -2.5748   -2.4702 H         1 UNK         0.3140 
     76 H76        29.0809   -2.1017    0.2494 H         1 UNK         0.1085 
     77 H77        28.4215    0.1435   -0.3886 H         1 UNK         0.0836 
     78 H78        27.9504   -0.3436   -1.9853 H         1 UNK         0.0836 
     79 H79        30.7188    1.1334   -3.8095 H         1 UNK         0.0731 
     80 H80        29.0219    0.8259   -3.6125 H         1 UNK         0.0731 
     81 H81        32.0202   -0.2160   -5.2220 H         1 UNK         0.1312 
     82 H82        30.4281   -3.8198   -6.9063 H         1 UNK         0.1406 
     83 H83        28.1774   -1.6365   -3.9823 H         1 UNK         0.1631 
     84 H84        27.5603   -4.0031   -4.6124 H         1 UNK         0.0717 
     85 H85        28.4835   -4.8427   -5.8281 H         1 UNK         0.0717 
     86 H86        25.5930   -2.6607   -4.9964 H         1 UNK         0.0934 
     87 H87        26.4625   -1.3057   -5.6629 H         1 UNK         0.0934 
     88 H88        24.2053   -2.6675   -7.2098 H         1 UNK         0.0739 
     89 H89        23.8029   -1.1431   -4.8403 H         1 UNK         0.3093 
     90 H90        20.7323    0.0916   -5.3605 H         1 UNK         0.0818 
     91 H91        20.5190   -2.8965   -4.7011 H         1 UNK         0.0819 
     92 H92        19.3488   -1.6603   -4.2374 H         1 UNK         0.0819 
     93 H93        19.5992   -2.0411   -5.9305 H         1 UNK         0.0819 
     94 H94        21.8250   -1.4986   -3.1377 H         1 UNK         0.3041 
     95 H95        23.7306    1.1118   -1.8102 H         1 UNK         0.0784 
     96 H96        21.4802    1.9025   -1.0541 H         1 UNK         0.0793 
     97 H97        20.9917    0.2444   -0.7339 H         1 UNK         0.0793 
     98 H98        22.2899    0.9857    0.2038 H         1 UNK         0.0793 
     99 H99        22.9619   -1.3072   -0.5925 H         1 UNK         0.3024 
    100 H100       24.4629   -2.9533   -0.3677 H         1 UNK         0.1171 
    101 H101       24.7348   -4.0173   -3.2417 H         1 UNK         0.0786 
    102 H102       23.2754   -4.0683   -2.2636 H         1 UNK         0.0786 
    103 H103       24.6825   -5.0009   -1.7819 H         1 UNK         0.0786 
    104 H104       26.8036   -3.1763   -2.1672 H         1 UNK         0.2977 
    105 H105       24.5162   -2.0308   -9.2559 H         1 UNK         0.3127 
    106 H106       24.6909    0.7588  -10.0189 H         1 UNK         0.0770 
    107 H107       24.8872   -1.8096  -11.6872 H         1 UNK         0.0814 
    108 H108       24.6877   -0.1842  -12.3259 H         1 UNK         0.0814 
    109 H109       23.4099   -0.9013  -11.3599 H         1 UNK         0.0814 
    110 H110       27.0417   -1.7052   -9.3267 H         1 UNK         0.2983 
    111 H111       29.1999   -0.6126  -10.9493 H         1 UNK         0.0947 
    112 H112       30.5173   -2.4277   -9.8525 H         1 UNK         0.0806 
    113 H113       29.0178   -3.0475  -10.5194 H         1 UNK         0.0806 
    114 H114       29.1655   -2.7779   -8.7848 H         1 UNK         0.0806 
    115 H115       27.8343    0.6501   -8.2494 H         1 UNK         0.3000 
    116 H116       29.8136    1.0478   -6.3708 H         1 UNK         0.0850 
    117 H117       28.3455    2.9221   -5.5705 H         1 UNK         0.0810 
    118 H118       27.4263    1.4792   -5.9588 H         1 UNK         0.0810 
    119 H119       27.4393    2.8432   -7.0765 H         1 UNK         0.0810 
    120 H120       29.8496    2.5382   -9.4492 H         1 UNK         0.3040 
    121 H121       31.4798    4.8453   -8.7474 H         1 UNK         0.0766 
    122 H122       30.0703    4.8296  -10.7977 H         1 UNK         0.0812 
    123 H123       30.9756    3.4563  -11.4367 H         1 UNK         0.0812 
    124 H124       31.7639    5.0126  -11.2205 H         1 UNK         0.0812 
    125 H125       32.1200    1.4313   -9.1468 H         1 UNK         0.3205 
    126 H126       35.0336    1.8549   -9.6249 H         1 UNK         0.0754 
    127 H127       35.0236   -0.5042  -10.3224 H         1 UNK         0.0769 
    128 H128       33.7431    0.3248  -11.1770 H         1 UNK         0.0769 
    129 H129       33.3514   -0.7057   -9.8075 H         1 UNK         0.0769 
    130 H130       35.8388   -0.5968   -8.5031 H         1 UNK         0.2981 
    131 H131       36.6471   -1.5343   -6.6977 H         1 UNK         0.0541 
    132 H132       37.1920    1.5128   -7.0915 H         1 UNK         0.3459 
    133 H133       37.9625    1.9101   -5.5759 H         1 UNK         0.3459 
    134 H134       35.2610   -1.8249   -4.6241 H         1 UNK         0.0612 
    135 H135       34.0981   -0.6975   -5.2362 H         1 UNK         0.0612 
    136 H136       32.2702   -2.7204   -7.9808 H         1 UNK         0.0624 
    137 H137       32.7544   -1.1296   -7.4960 H         1 UNK         0.0624 
@<TRIPOS>BOND
     1    1    2 1    
     2    1   72 1    
     3    1   73 1    
     4    1   74 1    
     5    2    3 2    
     6    2    4 am   BACKBONE|DICT|INTERRES
     7    4    5 1    
     8    4   75 1    
     9    5    6 1    
    10    5   35 1    
    11    5   76 1    
    12    6    7 1    
    13    6   77 1    
    14    6   78 1    
    15    7    8 1    
    16    8    9 1    
    17    8   79 1    
    18    8   80 1    
    19    9   10 ar   
    20    9   14 ar   
    21   10   11 ar   
    22   10   81 1    
    23   11   12 ar   
    24   11   71 1    
    25   12   13 ar   
    26   12   82 1    
    27   13   14 ar   
    28   13   15 1    
    29   14   83 1    
    30   15   16 1    
    31   15   84 1    
    32   15   85 1    
    33   16   17 1    
    34   17   18 1    
    35   17   86 1    
    36   17   87 1    
    37   18   19 1    
    38   18   37 1    
    39   18   88 1    
    40   19   20 am   BACKBONE|DICT|INTERRES
    41   19   89 1    
    42   20   21 2    
    43   20   22 1    
    44   22   23 1    
    45   22   24 1    
    46   22   90 1    
    47   23   91 1    
    48   23   92 1    
    49   23   93 1    
    50   24   25 am   BACKBONE|DICT|INTERRES
    51   24   94 1    
    52   25   26 2    
    53   25   27 1    
    54   27   28 1    
    55   27   29 1    
    56   27   95 1    
    57   28   96 1    
    58   28   97 1    
    59   28   98 1    
    60   29   30 am   BACKBONE|DICT|INTERRES
    61   29   99 1    
    62   30   31 2    
    63   30   32 1    
    64   32   33 1    
    65   32   34 1    
    66   32  100 1    
    67   33  101 1    
    68   33  102 1    
    69   33  103 1    
    70   34   35 am   BACKBONE|DICT|INTERRES
    71   34  104 1    
    72   35   36 2    
    73   37   38 2    
    74   37   39 am   BACKBONE|DICT|INTERRES
    75   39   40 1    
    76   39  105 1    
    77   40   41 1    
    78   40   42 1    
    79   40  106 1    
    80   41  107 1    
    81   41  108 1    
    82   41  109 1    
    83   42   43 2    
    84   42   44 am   BACKBONE|DICT|INTERRES
    85   44   45 1    
    86   44  110 1    
    87   45   46 1    
    88   45   47 1    
    89   45  111 1    
    90   46  112 1    
    91   46  113 1    
    92   46  114 1    
    93   47   48 2    
    94   47   49 am   BACKBONE|DICT|INTERRES
    95   49   50 1    
    96   49  115 1    
    97   50   51 1    
    98   50   52 1    
    99   50  116 1    
   100   51  117 1    
   101   51  118 1    
   102   51  119 1    
   103   52   53 2    
   104   52   54 am   BACKBONE|DICT|INTERRES
   105   54   55 1    
   106   54  120 1    
   107   55   56 1    
   108   55   57 1    
   109   55  121 1    
   110   56  122 1    
   111   56  123 1    
   112   56  124 1    
   113   57   58 2    
   114   57   59 am   BACKBONE|DICT|INTERRES
   115   59   60 1    
   116   59  125 1    
   117   60   61 1    
   118   60   62 1    
   119   60  126 1    
   120   61  127 1    
   121   61  128 1    
   122   61  129 1    
   123   62   63 2    
   124   62   64 am   BACKBONE|DICT|INTERRES
   125   64   65 1    
   126   64  130 1    
   127   65   66 1    
   128   65   69 1    
   129   65  131 1    
   130   66   67 am   BACKBONE|DICT|INTERRES
   131   66   68 2    
   132   67  132 1    
   133   67  133 1    
   134   69   70 1    
   135   69  134 1    
   136   69  135 1    
   137   70   71 1    
   138   71  136 1    
   139   71  137 1    
@<TRIPOS>SUBSTRUCTURE
     1 UNK         1 GROUP             0       ****    0 ROOT    
