@<TRIPOS>MOLECULE
3R137
137   139    1
SMALL
USER_CHARGES


@<TRIPOS>ATOM
      1 CA         23.3842   -3.8255   -0.8464 C.3       0 UNK        -0.2020 
      2 C          24.7755   -3.2187   -0.7538 C.2       0 UNK         0.4855 
      3 O          24.9173   -2.0502   -0.3904 O.2       0 UNK        -0.5197 
      4 N          25.8058   -4.0101   -1.0763 N.am      1 UNK        -0.4892 
      5 CA         27.2142   -3.6054   -1.0433 C.3       1 UNK         0.0835 
      6 C6         28.1734   -4.8238   -1.0823 C.3       12 UNK        -0.0855 
      7 S7         27.9270   -5.9546   -2.4978 S.3       12 UNK        -0.2931 
      8 C8         29.6443   -6.3491   -2.9663 C.3       12 UNK         0.0378 
      9 C9         30.2710   -5.2451   -3.8052 C.ar      12 UNK        -0.0802 
     10 C10        31.1641   -4.3314   -3.2350 C.ar      12 UNK        -0.0944 
     11 C11        31.7240   -3.3120   -4.0117 C.ar      12 UNK        -0.0787 
     12 C12        31.3813   -3.2069   -5.3625 C.ar      12 UNK        -0.0862 
     13 C13        30.5048   -4.1237   -5.9463 C.ar      12 UNK        -0.0733 
     14 C14        29.9584   -5.1455   -5.1643 C.ar      12 UNK        -0.0832 
     15 C15        30.1327   -3.9884   -7.4168 C.3       12 UNK         0.0240 
     16 S16        28.3539   -3.6815   -7.6540 S.3       12 UNK        -0.2522 
     17 C17        28.0530   -2.3397   -6.4553 C.3       12 UNK        -0.0967 
     18 CA         26.8024   -1.5062   -6.8276 C.3       5 UNK         0.0660 
     19 N          25.9225   -1.2828   -5.6759 N.am      5 UNK        -0.4015 
     20 C          24.6630   -0.8283   -5.7613 C.2       4 UNK         0.4946 
     21 O          24.1190   -0.5031   -6.8179 O.2       4 UNK        -0.5353 
     22 CA         23.8839   -0.7057   -4.4448 C.3       4 UNK         0.0277 
     23 CB         23.3477   -2.0749   -4.0009 C.3       4 UNK        -0.1981 
     24 N          24.7114   -0.1233   -3.3879 N.am      4 UNK        -0.4209 
     25 C          24.9562    1.1901   -3.2762 C.2       3 UNK         0.4942 
     26 O          24.4255    2.0493   -3.9803 O.2       3 UNK        -0.5208 
     27 CA         25.9828    1.6230   -2.2161 C.3       3 UNK         0.0250 
     28 CB         25.3004    1.8251   -0.8538 C.3       3 UNK        -0.1990 
     29 N          27.0988    0.6857   -2.0684 N.am      3 UNK        -0.4232 
     30 C          27.9906    0.3951   -3.0273 C.2       2 UNK         0.4993 
     31 O          27.9738    0.8837   -4.1544 O.2       2 UNK        -0.5286 
     32 CA         29.0654   -0.6473   -2.6817 C.3       2 UNK         0.0209 
     33 CB         30.2518    0.0439   -1.9891 C.3       2 UNK        -0.1931 
     34 N          28.5777   -1.7367   -1.8296 N.am      2 UNK        -0.4546 
     35 C          27.5478   -2.5469   -2.1162 C.2       1 UNK         0.5154 
     36 O          26.8710   -2.4577   -3.1466 O.2       1 UNK        -0.5181 
     37 C          27.1811   -0.2147   -7.5810 C.2       5 UNK         0.5014 
     38 O          27.4511   -0.2896   -8.7791 O.2       5 UNK        -0.5248 
     39 N          27.1485    0.9415   -6.8978 N.am      6 UNK        -0.4434 
     40 CA         27.4005    2.2935   -7.4168 C.3       6 UNK         0.0363 
     41 CB         27.1122    3.3186   -6.3072 C.3       6 UNK        -0.1936 
     42 C          26.6251    2.6816   -8.6906 C.2       6 UNK         0.5081 
     43 O          27.0841    3.5602   -9.4205 O.2       6 UNK        -0.5248 
     44 N          25.4903    2.0175   -8.9558 N.am      7 UNK        -0.4718 
     45 CA         24.7398    2.1118  -10.2117 C.3       7 UNK         0.0273 
     46 CB         23.4191    1.3399  -10.0642 C.3       7 UNK        -0.1935 
     47 C          25.5280    1.6060  -11.4383 C.2       7 UNK         0.5018 
     48 O          25.2750    2.0794  -12.5469 O.2       7 UNK        -0.5186 
     49 N          26.4664    0.6749  -11.2187 N.am      8 UNK        -0.4240 
     50 CA         27.4352    0.1983  -12.2014 C.3       8 UNK         0.0235 
     51 CB         27.5163   -1.3384  -12.1489 C.3       8 UNK        -0.2000 
     52 C          28.7984    0.8468  -11.9218 C.2       8 UNK         0.4941 
     53 O          29.2926    1.5917  -12.7690 O.2       8 UNK        -0.5273 
     54 N          29.3645    0.5758  -10.7378 N.am      9 UNK        -0.4262 
     55 CA         30.6320    1.1088  -10.2402 C.3       9 UNK         0.0264 
     56 CB         31.8243    0.6106  -11.0834 C.3       9 UNK        -0.1955 
     57 C          30.8097    0.6730   -8.7812 C.2       9 UNK         0.5031 
     58 O          30.6040   -0.5019   -8.4716 O.2       9 UNK        -0.5390 
     59 N          31.2186    1.6115   -7.9214 N.am      10 UNK        -0.4204 
     60 CA         31.5806    1.3514   -6.5269 C.3       10 UNK         0.0237 
     61 CB         31.1685    2.5604   -5.6699 C.3       10 UNK        -0.1985 
     62 C          33.0916    1.0924   -6.4067 C.2       10 UNK         0.4970 
     63 O          33.8559    1.4607   -7.3028 O.2       10 UNK        -0.4914 
     64 N          33.4923    0.4835   -5.2859 N.am      11 UNK        -0.4285 
     65 CA         34.8941    0.2313   -4.9177 C.3       11 UNK         0.1007 
     66 C          35.6654    1.5434   -4.6064 C.2       11 UNK         0.5703 
     67 N          36.9522    1.5970   -4.9223 N.am      11 UNK        -0.7361 
     68 O          35.1194    2.4924   -4.0457 O.2       11 UNK        -0.4986 
     69 C69        35.0003   -0.7596   -3.7275 C.3       12 UNK        -0.0947 
     70 S70        34.3374   -2.4085   -4.1350 S.3       12 UNK        -0.2240 
     71 C71        32.6780   -2.3010   -3.3984 C.3       12 UNK         0.0194 
     72 H72        22.6299   -3.0451   -0.9414 H         1 UNK         0.0906 
     73 H73        23.2981   -4.4864   -1.7087 H         1 UNK         0.0906 
     74 H74        23.1640   -4.3993    0.0534 H         1 UNK         0.0906 
     75 H75        25.6375   -4.9463   -1.4175 H         1 UNK         0.3140 
     76 H76        27.3647   -3.1174   -0.0772 H         1 UNK         0.1085 
     77 H77        29.2110   -4.4885   -1.0511 H         1 UNK         0.0836 
     78 H78        28.0384   -5.4120   -0.1731 H         1 UNK         0.0836 
     79 H79        30.2372   -6.5452   -2.0714 H         1 UNK         0.0731 
     80 H80        29.6456   -7.2786   -3.5376 H         1 UNK         0.0731 
     81 H81        31.4190   -4.4104   -2.1872 H         1 UNK         0.1312 
     82 H82        31.8035   -2.4105   -5.9609 H         1 UNK         0.1406 
     83 H83        29.2671   -5.8484   -5.6098 H         1 UNK         0.1631 
     84 H84        30.4110   -4.9007   -7.9457 H         1 UNK         0.0717 
     85 H85        30.6913   -3.1773   -7.8865 H         1 UNK         0.0717 
     86 H86        27.9306   -2.8199   -5.4840 H         1 UNK         0.0934 
     87 H87        28.9455   -1.7162   -6.3613 H         1 UNK         0.0934 
     88 H88        26.1985   -2.0858   -7.5297 H         1 UNK         0.0739 
     89 H89        26.2807   -1.5668   -4.7677 H         1 UNK         0.3093 
     90 H90        23.0261   -0.0533   -4.6240 H         1 UNK         0.0818 
     91 H91        22.7190   -1.9793   -3.1165 H         1 UNK         0.0819 
     92 H92        22.7359   -2.5261   -4.7833 H         1 UNK         0.0819 
     93 H93        24.1530   -2.7743   -3.7732 H         1 UNK         0.0819 
     94 H94        25.1991   -0.7649   -2.7755 H         1 UNK         0.3041 
     95 H95        26.3985    2.5808   -2.5369 H         1 UNK         0.0784 
     96 H96        24.4746    2.5337   -0.9324 H         1 UNK         0.0793 
     97 H97        24.8929    0.8911   -0.4636 H         1 UNK         0.0793 
     98 H98        25.9970    2.2227   -0.1154 H         1 UNK         0.0793 
     99 H99        27.1840    0.2165   -1.1784 H         1 UNK         0.3024 
    100 H100       29.4107   -1.0930   -3.6175 H         1 UNK         0.1171 
    101 H101       30.7228    0.7685   -2.6546 H         1 UNK         0.0786 
    102 H102       31.0162   -0.6700   -1.6861 H         1 UNK         0.0786 
    103 H103       29.9384    0.5830   -1.0939 H         1 UNK         0.0786 
    104 H104       29.0737   -1.8751   -0.9608 H         1 UNK         0.2977 
    105 H105       27.0325    0.8809   -5.8901 H         1 UNK         0.3127 
    106 H106       28.4610    2.3451   -7.6645 H         1 UNK         0.0770 
    107 H107       26.0734    3.2701   -5.9779 H         1 UNK         0.0814 
    108 H108       27.2982    4.3362   -6.6536 H         1 UNK         0.0814 
    109 H109       27.7450    3.1592   -5.4353 H         1 UNK         0.0814 
    110 H110       25.1826    1.3172   -8.2931 H         1 UNK         0.2983 
    111 H111       24.5080    3.1650  -10.3849 H         1 UNK         0.0947 
    112 H112       22.8247    1.4034  -10.9768 H         1 UNK         0.0806 
    113 H113       22.8117    1.7433   -9.2538 H         1 UNK         0.0806 
    114 H114       23.5914    0.2824   -9.8584 H         1 UNK         0.0806 
    115 H115       26.6347    0.3750  -10.2598 H         1 UNK         0.3000 
    116 H116       27.1270    0.4842  -13.2095 H         1 UNK         0.0850 
    117 H117       28.2665   -1.7129  -12.8465 H         1 UNK         0.0810 
    118 H118       26.5634   -1.7901  -12.4248 H         1 UNK         0.0810 
    119 H119       27.7802   -1.7054  -11.1561 H         1 UNK         0.0810 
    120 H120       28.8600   -0.0042  -10.0683 H         1 UNK         0.3040 
    121 H121       30.5843    2.1986  -10.2878 H         1 UNK         0.0766 
    122 H122       32.7709    0.9447  -10.6561 H         1 UNK         0.0812 
    123 H123       31.7866    0.9872  -12.1051 H         1 UNK         0.0812 
    124 H124       31.8539   -0.4788  -11.1282 H         1 UNK         0.0812 
    125 H125       31.4439    2.5309   -8.2740 H         1 UNK         0.3205 
    126 H126       31.0451    0.4717   -6.1616 H         1 UNK         0.0754 
    127 H127       31.4137    2.4034   -4.6189 H         1 UNK         0.0769 
    128 H128       30.0940    2.7315   -5.7231 H         1 UNK         0.0769 
    129 H129       31.6715    3.4744   -5.9884 H         1 UNK         0.0769 
    130 H130       32.8088    0.2606   -4.5812 H         1 UNK         0.2981 
    131 H131       35.3733   -0.2317   -5.7831 H         1 UNK         0.0541 
    132 H132       37.4128    0.8199   -5.3701 H         1 UNK         0.3459 
    133 H133       37.4728    2.4347   -4.7138 H         1 UNK         0.3459 
    134 H134       34.4982   -0.3649   -2.8420 H         1 UNK         0.0612 
    135 H135       36.0451   -0.8997   -3.4439 H         1 UNK         0.0612 
    136 H136       32.7573   -2.4346   -2.3185 H         1 UNK         0.0624 
    137 H137       32.2703   -1.3053   -3.5640 H         1 UNK         0.0624 
@<TRIPOS>BOND
     1    1    2 1    
     2    1   72 1    
     3    1   73 1    
     4    1   74 1    
     5    2    3 2    
     6    2    4 am   BACKBONE|DICT|INTERRES
     7    4    5 1    
     8    4   75 1    
     9    5    6 1    
    10    5   35 1    
    11    5   76 1    
    12    6    7 1    
    13    6   77 1    
    14    6   78 1    
    15    7    8 1    
    16    8    9 1    
    17    8   79 1    
    18    8   80 1    
    19    9   10 ar   
    20    9   14 ar   
    21   10   11 ar   
    22   10   81 1    
    23   11   12 ar   
    24   11   71 1    
    25   12   13 ar   
    26   12   82 1    
    27   13   14 ar   
    28   13   15 1    
    29   14   83 1    
    30   15   16 1    
    31   15   84 1    
    32   15   85 1    
    33   16   17 1    
    34   17   18 1    
    35   17   86 1    
    36   17   87 1    
    37   18   19 1    
    38   18   37 1    
    39   18   88 1    
    40   19   20 am   BACKBONE|DICT|INTERRES
    41   19   89 1    
    42   20   21 2    
    43   20   22 1    
    44   22   23 1    
    45   22   24 1    
    46   22   90 1    
    47   23   91 1    
    48   23   92 1    
    49   23   93 1    
    50   24   25 am   BACKBONE|DICT|INTERRES
    51   24   94 1    
    52   25   26 2    
    53   25   27 1    
    54   27   28 1    
    55   27   29 1    
    56   27   95 1    
    57   28   96 1    
    58   28   97 1    
    59   28   98 1    
    60   29   30 am   BACKBONE|DICT|INTERRES
    61   29   99 1    
    62   30   31 2    
    63   30   32 1    
    64   32   33 1    
    65   32   34 1    
    66   32  100 1    
    67   33  101 1    
    68   33  102 1    
    69   33  103 1    
    70   34   35 am   BACKBONE|DICT|INTERRES
    71   34  104 1    
    72   35   36 2    
    73   37   38 2    
    74   37   39 am   BACKBONE|DICT|INTERRES
    75   39   40 1    
    76   39  105 1    
    77   40   41 1    
    78   40   42 1    
    79   40  106 1    
    80   41  107 1    
    81   41  108 1    
    82   41  109 1    
    83   42   43 2    
    84   42   44 am   BACKBONE|DICT|INTERRES
    85   44   45 1    
    86   44  110 1    
    87   45   46 1    
    88   45   47 1    
    89   45  111 1    
    90   46  112 1    
    91   46  113 1    
    92   46  114 1    
    93   47   48 2    
    94   47   49 am   BACKBONE|DICT|INTERRES
    95   49   50 1    
    96   49  115 1    
    97   50   51 1    
    98   50   52 1    
    99   50  116 1    
   100   51  117 1    
   101   51  118 1    
   102   51  119 1    
   103   52   53 2    
   104   52   54 am   BACKBONE|DICT|INTERRES
   105   54   55 1    
   106   54  120 1    
   107   55   56 1    
   108   55   57 1    
   109   55  121 1    
   110   56  122 1    
   111   56  123 1    
   112   56  124 1    
   113   57   58 2    
   114   57   59 am   BACKBONE|DICT|INTERRES
   115   59   60 1    
   116   59  125 1    
   117   60   61 1    
   118   60   62 1    
   119   60  126 1    
   120   61  127 1    
   121   61  128 1    
   122   61  129 1    
   123   62   63 2    
   124   62   64 am   BACKBONE|DICT|INTERRES
   125   64   65 1    
   126   64  130 1    
   127   65   66 1    
   128   65   69 1    
   129   65  131 1    
   130   66   67 am   BACKBONE|DICT|INTERRES
   131   66   68 2    
   132   67  132 1    
   133   67  133 1    
   134   69   70 1    
   135   69  134 1    
   136   69  135 1    
   137   70   71 1    
   138   71  136 1    
   139   71  137 1    
@<TRIPOS>SUBSTRUCTURE
     1 UNK         1 GROUP             0       ****    0 ROOT    
