@<TRIPOS>MOLECULE
3R137
137   139    1
SMALL
USER_CHARGES


@<TRIPOS>ATOM
      1 CA         29.3239   -3.4539    2.5492 C.3       0 UNK        -0.2020 
      2 C          28.5296   -4.2783    1.5392 C.2       0 UNK         0.4855 
      3 O          28.7920   -5.4718    1.4058 O.2       0 UNK        -0.5197 
      4 N          27.5582   -3.7170    0.8084 N.am      1 UNK        -0.4892 
      5 CA         27.0723   -2.3319    0.8516 C.3       1 UNK         0.0835 
      6 C6         28.0848   -1.2770    0.3091 C.3       12 UNK        -0.0855 
      7 S7         28.4299   -1.3724   -1.4860 S.3       12 UNK        -0.2931 
      8 C8         29.9716   -2.3318   -1.5162 C.3       12 UNK         0.0378 
      9 C9         30.3266   -2.7812   -2.9267 C.ar      12 UNK        -0.0802 
     10 C10        31.4767   -2.2967   -3.5582 C.ar      12 UNK        -0.0944 
     11 C11        31.8500   -2.7789   -4.8164 C.ar      12 UNK        -0.0787 
     12 C12        31.0480   -3.7314   -5.4558 C.ar      12 UNK        -0.0862 
     13 C13        29.8912   -4.2188   -4.8386 C.ar      12 UNK        -0.0733 
     14 C14        29.5356   -3.7359   -3.5753 C.ar      12 UNK        -0.0832 
     15 C15        29.0754   -5.3288   -5.4940 C.3       12 UNK         0.0240 
     16 S16        28.1637   -4.7862   -6.9749 S.3       12 UNK        -0.2522 
     17 C17        26.8659   -3.7234   -6.2551 C.3       12 UNK        -0.0967 
     18 CA         26.5616   -2.4774   -7.1243 C.3       5 UNK         0.0660 
     19 N          25.3614   -1.7704   -6.6713 N.am      5 UNK        -0.4015 
     20 C          24.7224   -0.8242   -7.3777 C.2       4 UNK         0.4946 
     21 O          25.0448   -0.4859   -8.5162 O.2       4 UNK        -0.5353 
     22 CA         23.5448   -0.1023   -6.6963 C.3       4 UNK         0.0277 
     23 CB         22.2320   -0.8608   -6.9470 C.3       4 UNK        -0.1981 
     24 N          23.7315    0.0900   -5.2566 N.am      4 UNK        -0.4209 
     25 C          24.7175    0.8123   -4.7059 C.2       3 UNK         0.4942 
     26 O          25.5345    1.4602   -5.3579 O.2       3 UNK        -0.5208 
     27 CA         24.8532    0.7689   -3.1738 C.3       3 UNK         0.0250 
     28 CB         24.1067    1.9516   -2.5371 C.3       3 UNK        -0.1990 
     29 N          24.4213   -0.4813   -2.5335 N.am      3 UNK        -0.4232 
     30 C          24.8390   -1.7132   -2.8579 C.2       2 UNK         0.4993 
     31 O          25.5540   -1.9658   -3.8292 O.2       2 UNK        -0.5286 
     32 CA         24.4450   -2.8462   -1.9002 C.3       2 UNK         0.0209 
     33 CB         24.2260   -4.1760   -2.6452 C.3       2 UNK        -0.1931 
     34 N          25.5341   -3.0066   -0.9411 N.am      2 UNK        -0.4546 
     35 C          25.7098   -2.2304    0.1395 C.2       1 UNK         0.5154 
     36 O          24.8566   -1.4484    0.5623 O.2       1 UNK        -0.5181 
     37 C          27.7546   -1.5096   -7.1874 C.2       5 UNK         0.5014 
     38 O          28.4049   -1.4182   -8.2296 O.2       5 UNK        -0.5248 
     39 N          27.9780   -0.7689   -6.0915 N.am      6 UNK        -0.4434 
     40 CA         29.0273    0.2442   -5.9861 C.3       6 UNK         0.0363 
     41 CB         29.0735    0.8111   -4.5603 C.3       6 UNK        -0.1936 
     42 C          28.8821    1.3705   -7.0202 C.2       6 UNK         0.5081 
     43 O          29.8850    1.7765   -7.6034 O.2       6 UNK        -0.5248 
     44 N          27.6448    1.8258   -7.2596 N.am      7 UNK        -0.4718 
     45 CA         27.3081    2.8086   -8.2901 C.3       7 UNK         0.0273 
     46 CB         25.8432    3.2459   -8.1330 C.3       7 UNK        -0.1935 
     47 C          27.5746    2.2958   -9.7148 C.2       7 UNK         0.5018 
     48 O          28.1795    3.0201  -10.5056 O.2       7 UNK        -0.5186 
     49 N          27.1389    1.0624  -10.0143 N.am      8 UNK        -0.4240 
     50 CA         27.3217    0.4180  -11.3186 C.3       8 UNK         0.0235 
     51 CB         26.4758   -0.8633  -11.3927 C.3       8 UNK        -0.2000 
     52 C          28.7929    0.1125  -11.6411 C.2       8 UNK         0.4941 
     53 O          29.2305    0.3690  -12.7635 O.2       8 UNK        -0.5273 
     54 N          29.5286   -0.4210  -10.6573 N.am      9 UNK        -0.4262 
     55 CA         30.9475   -0.7645  -10.7809 C.3       9 UNK         0.0264 
     56 CB         31.2764   -1.8695   -9.7655 C.3       9 UNK        -0.1955 
     57 C          31.8969    0.4399  -10.6223 C.2       9 UNK         0.5031 
     58 O          33.0817    0.2992  -10.9297 O.2       9 UNK        -0.5390 
     59 N          31.3749    1.5853  -10.1557 N.am      10 UNK        -0.4204 
     60 CA         32.0794    2.8380   -9.8501 C.3       10 UNK         0.0237 
     61 CB         32.6583    3.4797  -11.1294 C.3       10 UNK        -0.1985 
     62 C          33.1198    2.6637   -8.7253 C.2       10 UNK         0.4970 
     63 O          34.2576    3.1222   -8.8501 O.2       10 UNK        -0.4914 
     64 N          32.7031    1.9846   -7.6521 N.am      11 UNK        -0.4285 
     65 CA         33.5073    1.7049   -6.4557 C.3       11 UNK         0.1007 
     66 C          33.6539    2.9537   -5.5463 C.2       11 UNK         0.5703 
     67 N          34.7527    3.0564   -4.8106 N.am      11 UNK        -0.7361 
     68 O          32.7727    3.8087   -5.4715 O.2       11 UNK        -0.4986 
     69 C69        32.9414    0.4982   -5.6618 C.3       12 UNK        -0.0947 
     70 S70        32.9121   -1.0146   -6.6798 S.3       12 UNK        -0.2240 
     71 C71        33.1578   -2.3323   -5.4548 C.3       12 UNK         0.0194 
     72 H72        28.7358   -2.6605    3.0061 H         1 UNK         0.0906 
     73 H73        29.6779   -4.0949    3.3564 H         1 UNK         0.0906 
     74 H74        30.1974   -3.0127    2.0707 H         1 UNK         0.0906 
     75 H75        27.0176   -4.3285    0.2137 H         1 UNK         0.3140 
     76 H76        26.8624   -2.0928    1.8958 H         1 UNK         0.1085 
     77 H77        27.6965   -0.2760    0.5064 H         1 UNK         0.0836 
     78 H78        29.0263   -1.3195    0.8550 H         1 UNK         0.0836 
     79 H79        30.7735   -1.7322   -1.0828 H         1 UNK         0.0731 
     80 H80        29.8680   -3.2140   -0.8845 H         1 UNK         0.0731 
     81 H81        32.1023   -1.5712   -3.0563 H         1 UNK         0.1312 
     82 H82        31.3395   -4.1158   -6.4238 H         1 UNK         0.1406 
     83 H83        28.6550   -4.1202   -3.0790 H         1 UNK         0.1631 
     84 H84        28.3710   -5.7658   -4.7843 H         1 UNK         0.0717 
     85 H85        29.7505   -6.1360   -5.7817 H         1 UNK         0.0717 
     86 H86        25.9656   -4.3303   -6.1478 H         1 UNK         0.0934 
     87 H87        27.1498   -3.4302   -5.2437 H         1 UNK         0.0934 
     88 H88        26.3648   -2.8205   -8.1426 H         1 UNK         0.0739 
     89 H89        25.1052   -1.9170   -5.6990 H         1 UNK         0.3093 
     90 H90        23.4598    0.8864   -7.1520 H         1 UNK         0.0818 
     91 H91        21.3756   -0.3151   -6.5504 H         1 UNK         0.0819 
     92 H92        22.0596   -0.9972   -8.0157 H         1 UNK         0.0819 
     93 H93        22.2421   -1.8511   -6.4898 H         1 UNK         0.0819 
     94 H94        23.1058   -0.4087   -4.6411 H         1 UNK         0.3041 
     95 H95        25.9162    0.8804   -2.9502 H         1 UNK         0.0784 
     96 H96        24.4263    2.8978   -2.9766 H         1 UNK         0.0793 
     97 H97        23.0283    1.8728   -2.6807 H         1 UNK         0.0793 
     98 H98        24.3005    2.0138   -1.4660 H         1 UNK         0.0793 
     99 H99        23.8714   -0.3779   -1.6916 H         1 UNK         0.3024 
    100 H100       23.5192   -2.5822   -1.3835 H         1 UNK         0.1171 
    101 H101       23.4369   -4.0779   -3.3918 H         1 UNK         0.0786 
    102 H102       23.9258   -4.9678   -1.9587 H         1 UNK         0.0786 
    103 H103       25.1258   -4.5089   -3.1647 H         1 UNK         0.0786 
    104 H104       26.3318   -3.5236   -1.2797 H         1 UNK         0.2977 
    105 H105       27.3825   -0.9023   -5.2851 H         1 UNK         0.3127 
    106 H106       29.9743   -0.2603   -6.1855 H         1 UNK         0.0770 
    107 H107       28.1085    1.2123   -4.2503 H         1 UNK         0.0814 
    108 H108       29.8026    1.6185   -4.4810 H         1 UNK         0.0814 
    109 H109       29.3677    0.0429   -3.8470 H         1 UNK         0.0814 
    110 H110       26.8795    1.4912   -6.6778 H         1 UNK         0.2983 
    111 H111       27.9426    3.6833   -8.1310 H         1 UNK         0.0947 
    112 H112       25.5761    3.9947   -8.8800 H         1 UNK         0.0806 
    113 H113       25.6652    3.6877   -7.1524 H         1 UNK         0.0806 
    114 H114       25.1567    2.4069   -8.2500 H         1 UNK         0.0806 
    115 H115       26.6237    0.5354   -9.3150 H         1 UNK         0.3000 
    116 H116       26.9552    1.1076  -12.0821 H         1 UNK         0.0850 
    117 H117       26.6008   -1.3613  -12.3551 H         1 UNK         0.0810 
    118 H118       25.4144   -0.6432  -11.2776 H         1 UNK         0.0810 
    119 H119       26.7544   -1.5761  -10.6152 H         1 UNK         0.0810 
    120 H120       29.0802   -0.6485   -9.7695 H         1 UNK         0.3040 
    121 H121       31.1215   -1.1717  -11.7793 H         1 UNK         0.0766 
    122 H122       32.3362   -2.1267   -9.7838 H         1 UNK         0.0812 
    123 H123       30.7159   -2.7802   -9.9768 H         1 UNK         0.0812 
    124 H124       31.0292   -1.5605   -8.7505 H         1 UNK         0.0812 
    125 H125       30.4009    1.5687   -9.8809 H         1 UNK         0.3205 
    126 H126       31.3223    3.5188   -9.4577 H         1 UNK         0.0754 
    127 H127       33.0698    4.4673  -10.9176 H         1 UNK         0.0769 
    128 H128       31.8886    3.6061  -11.8909 H         1 UNK         0.0769 
    129 H129       33.4608    2.8796  -11.5593 H         1 UNK         0.0769 
    130 H130       31.7215    1.7212   -7.6067 H         1 UNK         0.2981 
    131 H131       34.5092    1.4349   -6.7964 H         1 UNK         0.0541 
    132 H132       35.4783    2.3578   -4.8550 H         1 UNK         0.3459 
    133 H133       34.8618    3.8533   -4.2030 H         1 UNK         0.3459 
    134 H134       31.9333    0.7050   -5.3039 H         1 UNK         0.0612 
    135 H135       33.5498    0.3121   -4.7753 H         1 UNK         0.0612 
    136 H136       33.6192   -3.1834   -5.9576 H         1 UNK         0.0624 
    137 H137       33.8731   -2.0122   -4.6959 H         1 UNK         0.0624 
@<TRIPOS>BOND
     1    1    2 1    
     2    1   72 1    
     3    1   73 1    
     4    1   74 1    
     5    2    3 2    
     6    2    4 am   BACKBONE|DICT|INTERRES
     7    4    5 1    
     8    4   75 1    
     9    5    6 1    
    10    5   35 1    
    11    5   76 1    
    12    6    7 1    
    13    6   77 1    
    14    6   78 1    
    15    7    8 1    
    16    8    9 1    
    17    8   79 1    
    18    8   80 1    
    19    9   10 ar   
    20    9   14 ar   
    21   10   11 ar   
    22   10   81 1    
    23   11   12 ar   
    24   11   71 1    
    25   12   13 ar   
    26   12   82 1    
    27   13   14 ar   
    28   13   15 1    
    29   14   83 1    
    30   15   16 1    
    31   15   84 1    
    32   15   85 1    
    33   16   17 1    
    34   17   18 1    
    35   17   86 1    
    36   17   87 1    
    37   18   19 1    
    38   18   37 1    
    39   18   88 1    
    40   19   20 am   BACKBONE|DICT|INTERRES
    41   19   89 1    
    42   20   21 2    
    43   20   22 1    
    44   22   23 1    
    45   22   24 1    
    46   22   90 1    
    47   23   91 1    
    48   23   92 1    
    49   23   93 1    
    50   24   25 am   BACKBONE|DICT|INTERRES
    51   24   94 1    
    52   25   26 2    
    53   25   27 1    
    54   27   28 1    
    55   27   29 1    
    56   27   95 1    
    57   28   96 1    
    58   28   97 1    
    59   28   98 1    
    60   29   30 am   BACKBONE|DICT|INTERRES
    61   29   99 1    
    62   30   31 2    
    63   30   32 1    
    64   32   33 1    
    65   32   34 1    
    66   32  100 1    
    67   33  101 1    
    68   33  102 1    
    69   33  103 1    
    70   34   35 am   BACKBONE|DICT|INTERRES
    71   34  104 1    
    72   35   36 2    
    73   37   38 2    
    74   37   39 am   BACKBONE|DICT|INTERRES
    75   39   40 1    
    76   39  105 1    
    77   40   41 1    
    78   40   42 1    
    79   40  106 1    
    80   41  107 1    
    81   41  108 1    
    82   41  109 1    
    83   42   43 2    
    84   42   44 am   BACKBONE|DICT|INTERRES
    85   44   45 1    
    86   44  110 1    
    87   45   46 1    
    88   45   47 1    
    89   45  111 1    
    90   46  112 1    
    91   46  113 1    
    92   46  114 1    
    93   47   48 2    
    94   47   49 am   BACKBONE|DICT|INTERRES
    95   49   50 1    
    96   49  115 1    
    97   50   51 1    
    98   50   52 1    
    99   50  116 1    
   100   51  117 1    
   101   51  118 1    
   102   51  119 1    
   103   52   53 2    
   104   52   54 am   BACKBONE|DICT|INTERRES
   105   54   55 1    
   106   54  120 1    
   107   55   56 1    
   108   55   57 1    
   109   55  121 1    
   110   56  122 1    
   111   56  123 1    
   112   56  124 1    
   113   57   58 2    
   114   57   59 am   BACKBONE|DICT|INTERRES
   115   59   60 1    
   116   59  125 1    
   117   60   61 1    
   118   60   62 1    
   119   60  126 1    
   120   61  127 1    
   121   61  128 1    
   122   61  129 1    
   123   62   63 2    
   124   62   64 am   BACKBONE|DICT|INTERRES
   125   64   65 1    
   126   64  130 1    
   127   65   66 1    
   128   65   69 1    
   129   65  131 1    
   130   66   67 am   BACKBONE|DICT|INTERRES
   131   66   68 2    
   132   67  132 1    
   133   67  133 1    
   134   69   70 1    
   135   69  134 1    
   136   69  135 1    
   137   70   71 1    
   138   71  136 1    
   139   71  137 1    
@<TRIPOS>SUBSTRUCTURE
     1 UNK         1 GROUP             0       ****    0 ROOT    
