@<TRIPOS>MOLECULE
3R137
137   139    1
SMALL
USER_CHARGES


@<TRIPOS>ATOM
      1 CA         30.5777   -5.1701   -4.1499 C.3       0 UNK        -0.2020 
      2 C          29.3263   -4.9897   -3.3031 C.2       0 UNK         0.4855 
      3 O          28.4072   -5.8051   -3.3863 O.2       0 UNK        -0.5197 
      4 N          29.2922   -3.9390   -2.4763 N.am      1 UNK        -0.4892 
      5 CA         28.1867   -3.6266   -1.5628 C.3       1 UNK         0.0835 
      6 C6         28.6383   -2.7242   -0.3793 C.3       12 UNK        -0.0855 
      7 S7         30.2142   -3.2434    0.3901 S.3       12 UNK        -0.2931 
      8 C8         31.1702   -1.6867    0.4243 C.3       12 UNK         0.0378 
      9 C9         31.2901   -1.0193   -0.9423 C.ar      12 UNK        -0.0802 
     10 C10        31.9849   -1.6479   -1.9812 C.ar      12 UNK        -0.0944 
     11 C11        32.0965   -1.0333   -3.2325 C.ar      12 UNK        -0.0787 
     12 C12        31.5096    0.2186   -3.4374 C.ar      12 UNK        -0.0862 
     13 C13        30.8097    0.8580   -2.4111 C.ar      12 UNK        -0.0733 
     14 C14        30.7128    0.2375   -1.1616 C.ar      12 UNK        -0.0832 
     15 C15        30.1842    2.2273   -2.6592 C.3       12 UNK         0.0240 
     16 S16        28.3929    2.3089   -2.3098 S.3       12 UNK        -0.2522 
     17 C17        27.7182    0.8490   -3.1703 C.3       12 UNK        -0.0967 
     18 CA         27.8100    0.8979   -4.7149 C.3       5 UNK         0.0660 
     19 N          27.6137   -0.4320   -5.2859 N.am      5 UNK        -0.4015 
     20 C          27.7827   -0.7854   -6.5657 C.2       4 UNK         0.4946 
     21 O          28.2393   -0.0419   -7.4353 O.2       4 UNK        -0.5353 
     22 CA         27.3359   -2.2064   -6.9412 C.3       4 UNK         0.0277 
     23 CB         28.4507   -3.2179   -6.6581 C.3       4 UNK        -0.1981 
     24 N          26.1349   -2.6125   -6.2109 N.am      4 UNK        -0.4209 
     25 C          24.8905   -2.2408   -6.5352 C.2       3 UNK         0.4942 
     26 O          24.6185   -1.5291   -7.5016 O.2       3 UNK        -0.5208 
     27 CA         23.7564   -2.7397   -5.6224 C.3       3 UNK         0.0250 
     28 CB         23.2607   -4.1191   -6.0854 C.3       3 UNK        -0.1990 
     29 N          24.1208   -2.8026   -4.2027 N.am      3 UNK        -0.4232 
     30 C          24.4058   -1.7291   -3.4541 C.2       2 UNK         0.4993 
     31 O          24.4524   -0.5799   -3.8922 O.2       2 UNK        -0.5286 
     32 CA         24.7286   -1.9761   -1.9711 C.3       2 UNK         0.0209 
     33 CB         23.4776   -2.4484   -1.2106 C.3       2 UNK        -0.1931 
     34 N          25.8529   -2.8802   -1.6801 N.am      2 UNK        -0.4546 
     35 C          27.0320   -2.9381   -2.3182 C.2       1 UNK         0.5154 
     36 O          27.2511   -2.4117   -3.4106 O.2       1 UNK        -0.5181 
     37 C          26.8415    1.9148   -5.3496 C.2       5 UNK         0.5014 
     38 O          27.2928    2.9531   -5.8368 O.2       5 UNK        -0.5248 
     39 N          25.5472    1.5591   -5.4091 N.am      6 UNK        -0.4434 
     40 CA         24.4809    2.3263   -6.0635 C.3       6 UNK         0.0363 
     41 CB         23.1257    1.6558   -5.7897 C.3       6 UNK        -0.1936 
     42 C          24.6807    2.5196   -7.5778 C.2       6 UNK         0.5081 
     43 O          24.2009    3.5131   -8.1226 O.2       6 UNK        -0.5248 
     44 N          25.4249    1.6126   -8.2250 N.am      7 UNK        -0.4718 
     45 CA         25.8574    1.7045   -9.6236 C.3       7 UNK         0.0273 
     46 CB         26.0413    0.2818  -10.1834 C.3       7 UNK        -0.1935 
     47 C          27.1240    2.5726   -9.8028 C.2       7 UNK         0.5018 
     48 O          27.8896    2.3392  -10.7389 O.2       7 UNK        -0.5186 
     49 N          27.3183    3.5556   -8.9097 N.am      8 UNK        -0.4240 
     50 CA         28.4345    4.5029   -8.8279 C.3       8 UNK         0.0235 
     51 CB         28.4614    5.4360  -10.0582 C.3       8 UNK        -0.2000 
     52 C          29.7808    3.8059   -8.5594 C.2       8 UNK         0.4941 
     53 O          30.7796    4.1373   -9.2010 O.2       8 UNK        -0.5273 
     54 N          29.7706    2.8613   -7.6048 N.am      9 UNK        -0.4262 
     55 CA         30.8974    2.0240   -7.1721 C.3       9 UNK         0.0264 
     56 CB         31.9511    2.8722   -6.4275 C.3       9 UNK        -0.1955 
     57 C          31.4929    1.2043   -8.3313 C.2       9 UNK         0.5031 
     58 O          32.6760    1.3498   -8.6467 O.2       9 UNK        -0.5390 
     59 N          30.6430    0.3789   -8.9578 N.am      10 UNK        -0.4204 
     60 CA         30.9975   -0.5013  -10.0740 C.3       10 UNK         0.0237 
     61 CB         29.7142   -1.0613  -10.7162 C.3       10 UNK        -0.1985 
     62 C          31.9636   -1.6092   -9.6208 C.2       10 UNK         0.4970 
     63 O          33.1521   -1.5508   -9.9372 O.2       10 UNK        -0.4914 
     64 N          31.4268   -2.5688   -8.8568 N.am      11 UNK        -0.4285 
     65 CA         32.1559   -3.5970   -8.0902 C.3       11 UNK         0.1007 
     66 C          33.0367   -4.5707   -8.9325 C.2       11 UNK         0.5703 
     67 N          32.7721   -4.7429  -10.2221 N.am      11 UNK        -0.7361 
     68 O          33.9475   -5.2086   -8.4091 O.2       11 UNK        -0.4986 
     69 C69        32.9005   -2.9871   -6.8667 C.3       12 UNK        -0.0947 
     70 S70        31.7634   -2.0855   -5.7608 S.3       12 UNK        -0.2240 
     71 C71        32.8603   -1.7069   -4.3636 C.3       12 UNK         0.0194 
     72 H72        30.3421   -5.0575   -5.2073 H         1 UNK         0.0906 
     73 H73        31.3488   -4.4449   -3.8922 H         1 UNK         0.0906 
     74 H74        30.9916   -6.1665   -3.9988 H         1 UNK         0.0906 
     75 H75        30.0546   -3.2766   -2.4656 H         1 UNK         0.3140 
     76 H76        27.8103   -4.5670   -1.1536 H         1 UNK         0.1085 
     77 H77        28.7191   -1.6847   -0.6996 H         1 UNK         0.0836 
     78 H78        27.8766   -2.7248    0.4025 H         1 UNK         0.0836 
     79 H79        32.1705   -1.8971    0.8052 H         1 UNK         0.0731 
     80 H80        30.7076   -1.0105    1.1450 H         1 UNK         0.0731 
     81 H81        32.4396   -2.6144   -1.8099 H         1 UNK         0.1312 
     82 H82        31.6014    0.6910   -4.4043 H         1 UNK         0.1406 
     83 H83        30.1775    0.7343   -0.3636 H         1 UNK         0.1631 
     84 H84        30.3448    2.5442   -3.6897 H         1 UNK         0.0717 
     85 H85        30.6937    2.9631   -2.0358 H         1 UNK         0.0717 
     86 H86        28.2560   -0.0224   -2.7954 H         1 UNK         0.0934 
     87 H87        26.6852    0.7068   -2.8481 H         1 UNK         0.0934 
     88 H88        28.8216    1.1992   -4.9812 H         1 UNK         0.0739 
     89 H89        27.3121   -1.1540   -4.6317 H         1 UNK         0.3093 
     90 H90        27.1203   -2.2215   -8.0118 H         1 UNK         0.0818 
     91 H91        28.1486   -4.2334   -6.9144 H         1 UNK         0.0819 
     92 H92        29.3347   -2.9838   -7.2434 H         1 UNK         0.0819 
     93 H93        28.7436   -3.2054   -5.6083 H         1 UNK         0.0819 
     94 H94        26.2766   -3.1343   -5.3556 H         1 UNK         0.3041 
     95 H95        22.9295   -2.0328   -5.7196 H         1 UNK         0.0784 
     96 H96        22.9624   -4.0940   -7.1346 H         1 UNK         0.0793 
     97 H97        24.0336   -4.8822   -5.9846 H         1 UNK         0.0793 
     98 H98        22.3917   -4.4419   -5.5116 H         1 UNK         0.0793 
     99 H99        24.1319   -3.7134   -3.7666 H         1 UNK         0.3024 
    100 H100       25.0102   -1.0042   -1.5603 H         1 UNK         0.1171 
    101 H101       22.6252   -1.7981   -1.4136 H         1 UNK         0.0786 
    102 H102       23.6397   -2.4344   -0.1326 H         1 UNK         0.0786 
    103 H103       23.1892   -3.4619   -1.4917 H         1 UNK         0.0786 
    104 H104       25.7792   -3.3770   -0.8037 H         1 UNK         0.2977 
    105 H105       25.2535    0.6977   -4.9492 H         1 UNK         0.3127 
    106 H106       24.4692    3.3193   -5.6096 H         1 UNK         0.0770 
    107 H107       23.0932    0.6406   -6.1876 H         1 UNK         0.0814 
    108 H108       22.3104    2.2148   -6.2510 H         1 UNK         0.0814 
    109 H109       22.9174    1.6034   -4.7210 H         1 UNK         0.0814 
    110 H110       25.7842    0.8270   -7.6996 H         1 UNK         0.2983 
    111 H111       25.0670    2.1861  -10.2030 H         1 UNK         0.0947 
    112 H112       26.2665    0.3034  -11.2504 H         1 UNK         0.0806 
    113 H113       25.1372   -0.3142  -10.0574 H         1 UNK         0.0806 
    114 H114       26.8581   -0.2427   -9.6890 H         1 UNK         0.0806 
    115 H115       26.6386    3.6311   -8.1646 H         1 UNK         0.3000 
    116 H116       28.2393    5.1234   -7.9518 H         1 UNK         0.0850 
    117 H117       29.2097    6.2200   -9.9363 H         1 UNK         0.0810 
    118 H118       27.4996    5.9273  -10.2050 H         1 UNK         0.0810 
    119 H119       28.7057    4.8952  -10.9730 H         1 UNK         0.0810 
    120 H120       28.8843    2.6819   -7.1431 H         1 UNK         0.3040 
    121 H121       30.5003    1.2963   -6.4660 H         1 UNK         0.0766 
    122 H122       31.5088    3.4191   -5.5958 H         1 UNK         0.0812 
    123 H123       32.4251    3.5997   -7.0873 H         1 UNK         0.0812 
    124 H124       32.7430    2.2418   -6.0214 H         1 UNK         0.0812 
    125 H125       29.6956    0.3083   -8.5900 H         1 UNK         0.3205 
    126 H126       31.5142    0.0987  -10.8261 H         1 UNK         0.0754 
    127 H127       29.9497   -1.7653  -11.5155 H         1 UNK         0.0769 
    128 H128       29.1210   -0.2602  -11.1585 H         1 UNK         0.0769 
    129 H129       29.0792   -1.5777   -9.9957 H         1 UNK         0.0769 
    130 H130       30.4350   -2.5286   -8.6865 H         1 UNK         0.2981 
    131 H131       31.3817   -4.2498   -7.6861 H         1 UNK         0.0541 
    132 H132       32.0276   -4.2282  -10.6639 H         1 UNK         0.3459 
    133 H133       33.3360   -5.3810  -10.7609 H         1 UNK         0.3459 
    134 H134       33.3819   -3.7708   -6.2792 H         1 UNK         0.0612 
    135 H135       33.6911   -2.3095   -7.1929 H         1 UNK         0.0612 
    136 H136       33.6624   -1.0498   -4.7026 H         1 UNK         0.0624 
    137 H137       33.3319   -2.6278   -4.0174 H         1 UNK         0.0624 
@<TRIPOS>BOND
     1    1    2 1    
     2    1   72 1    
     3    1   73 1    
     4    1   74 1    
     5    2    3 2    
     6    2    4 am   BACKBONE|DICT|INTERRES
     7    4    5 1    
     8    4   75 1    
     9    5    6 1    
    10    5   35 1    
    11    5   76 1    
    12    6    7 1    
    13    6   77 1    
    14    6   78 1    
    15    7    8 1    
    16    8    9 1    
    17    8   79 1    
    18    8   80 1    
    19    9   10 ar   
    20    9   14 ar   
    21   10   11 ar   
    22   10   81 1    
    23   11   12 ar   
    24   11   71 1    
    25   12   13 ar   
    26   12   82 1    
    27   13   14 ar   
    28   13   15 1    
    29   14   83 1    
    30   15   16 1    
    31   15   84 1    
    32   15   85 1    
    33   16   17 1    
    34   17   18 1    
    35   17   86 1    
    36   17   87 1    
    37   18   19 1    
    38   18   37 1    
    39   18   88 1    
    40   19   20 am   BACKBONE|DICT|INTERRES
    41   19   89 1    
    42   20   21 2    
    43   20   22 1    
    44   22   23 1    
    45   22   24 1    
    46   22   90 1    
    47   23   91 1    
    48   23   92 1    
    49   23   93 1    
    50   24   25 am   BACKBONE|DICT|INTERRES
    51   24   94 1    
    52   25   26 2    
    53   25   27 1    
    54   27   28 1    
    55   27   29 1    
    56   27   95 1    
    57   28   96 1    
    58   28   97 1    
    59   28   98 1    
    60   29   30 am   BACKBONE|DICT|INTERRES
    61   29   99 1    
    62   30   31 2    
    63   30   32 1    
    64   32   33 1    
    65   32   34 1    
    66   32  100 1    
    67   33  101 1    
    68   33  102 1    
    69   33  103 1    
    70   34   35 am   BACKBONE|DICT|INTERRES
    71   34  104 1    
    72   35   36 2    
    73   37   38 2    
    74   37   39 am   BACKBONE|DICT|INTERRES
    75   39   40 1    
    76   39  105 1    
    77   40   41 1    
    78   40   42 1    
    79   40  106 1    
    80   41  107 1    
    81   41  108 1    
    82   41  109 1    
    83   42   43 2    
    84   42   44 am   BACKBONE|DICT|INTERRES
    85   44   45 1    
    86   44  110 1    
    87   45   46 1    
    88   45   47 1    
    89   45  111 1    
    90   46  112 1    
    91   46  113 1    
    92   46  114 1    
    93   47   48 2    
    94   47   49 am   BACKBONE|DICT|INTERRES
    95   49   50 1    
    96   49  115 1    
    97   50   51 1    
    98   50   52 1    
    99   50  116 1    
   100   51  117 1    
   101   51  118 1    
   102   51  119 1    
   103   52   53 2    
   104   52   54 am   BACKBONE|DICT|INTERRES
   105   54   55 1    
   106   54  120 1    
   107   55   56 1    
   108   55   57 1    
   109   55  121 1    
   110   56  122 1    
   111   56  123 1    
   112   56  124 1    
   113   57   58 2    
   114   57   59 am   BACKBONE|DICT|INTERRES
   115   59   60 1    
   116   59  125 1    
   117   60   61 1    
   118   60   62 1    
   119   60  126 1    
   120   61  127 1    
   121   61  128 1    
   122   61  129 1    
   123   62   63 2    
   124   62   64 am   BACKBONE|DICT|INTERRES
   125   64   65 1    
   126   64  130 1    
   127   65   66 1    
   128   65   69 1    
   129   65  131 1    
   130   66   67 am   BACKBONE|DICT|INTERRES
   131   66   68 2    
   132   67  132 1    
   133   67  133 1    
   134   69   70 1    
   135   69  134 1    
   136   69  135 1    
   137   70   71 1    
   138   71  136 1    
   139   71  137 1    
@<TRIPOS>SUBSTRUCTURE
     1 UNK         1 GROUP             0       ****    0 ROOT    
