@<TRIPOS>MOLECULE
3R137
137   139    1
SMALL
USER_CHARGES


@<TRIPOS>ATOM
      1 CA         28.4947   -7.2928   -2.1421 C.3       0 UNK        -0.2020 
      2 C          27.6275   -6.2345   -1.4766 C.2       0 UNK         0.4855 
      3 O          26.6437   -6.5737   -0.8177 O.2       0 UNK        -0.5197 
      4 N          27.9908   -4.9567   -1.6366 N.am      1 UNK        -0.4892 
      5 CA         27.2382   -3.8060   -1.1267 C.3       1 UNK         0.0835 
      6 C6         28.1132   -2.5340   -1.0701 C.3       12 UNK        -0.0855 
      7 S7         29.4764   -2.6433    0.1399 S.3       12 UNK        -0.2931 
      8 C8         30.9616   -2.8053   -0.9129 C.3       12 UNK         0.0378 
      9 C9         31.0541   -1.7666   -2.0282 C.ar      12 UNK        -0.0802 
     10 C10        31.4158   -2.1732   -3.3156 C.ar      12 UNK        -0.0944 
     11 C11        31.4848   -1.2498   -4.3614 C.ar      12 UNK        -0.0787 
     12 C12        31.1643    0.0885   -4.1201 C.ar      12 UNK        -0.0862 
     13 C13        30.8007    0.5132   -2.8371 C.ar      12 UNK        -0.0733 
     14 C14        30.7762   -0.4149   -1.7903 C.ar      12 UNK        -0.0832 
     15 C15        30.4458    1.9782   -2.5943 C.3       12 UNK         0.0240 
     16 S16        28.8438    2.2410   -1.7445 S.3       12 UNK        -0.2522 
     17 C17        27.6882    1.0524   -2.5162 C.3       12 UNK        -0.0967 
     18 CA         27.6411    1.0775   -4.0629 C.3       5 UNK         0.0660 
     19 N          27.2937   -0.2364   -4.6072 N.am      5 UNK        -0.4015 
     20 C          27.7300   -0.7014   -5.7851 C.2       4 UNK         0.4946 
     21 O          28.4637   -0.0683   -6.5432 O.2       4 UNK        -0.5353 
     22 CA         27.2365   -2.0937   -6.2097 C.3       4 UNK         0.0277 
     23 CB         28.1406   -3.1870   -5.6186 C.3       4 UNK        -0.1981 
     24 N          25.8408   -2.3407   -5.8383 N.am      4 UNK        -0.4209 
     25 C          24.8046   -1.6535   -6.3448 C.2       3 UNK         0.4942 
     26 O          24.9237   -0.7665   -7.1890 O.2       3 UNK        -0.5208 
     27 CA         23.4024   -1.9610   -5.7933 C.3       3 UNK         0.0250 
     28 CB         22.7150   -3.0320   -6.6544 C.3       3 UNK        -0.1990 
     29 N          23.3741   -2.3762   -4.3897 N.am      3 UNK        -0.4232 
     30 C          23.9019   -1.7144   -3.3499 C.2       2 UNK         0.4993 
     31 O          24.5298   -0.6563   -3.4519 O.2       2 UNK        -0.5286 
     32 CA         23.7460   -2.3686   -1.9626 C.3       2 UNK         0.0209 
     33 CB         22.7554   -3.5558   -1.9290 C.3       2 UNK        -0.1931 
     34 N          25.0346   -2.7828   -1.3940 N.am      2 UNK        -0.4546 
     35 C          25.9791   -3.5375   -1.9783 C.2       1 UNK         0.5154 
     36 O          25.9058   -3.9664   -3.1349 O.2       1 UNK        -0.5181 
     37 C          26.7156    2.1782   -4.6083 C.2       5 UNK         0.5014 
     38 O          27.1661    3.3134   -4.7638 O.2       5 UNK        -0.5248 
     39 N          25.4611    1.8268   -4.9348 N.am      6 UNK        -0.4434 
     40 CA         24.5271    2.7019   -5.6495 C.3       6 UNK         0.0363 
     41 CB         23.1276    2.0691   -5.6768 C.3       6 UNK        -0.1936 
     42 C          25.0131    3.0212   -7.0755 C.2       6 UNK         0.5081 
     43 O          24.9383    4.1764   -7.4949 O.2       6 UNK        -0.5248 
     44 N          25.5290    2.0025   -7.7795 N.am      7 UNK        -0.4718 
     45 CA         26.1943    2.1462   -9.0758 C.3       7 UNK         0.0273 
     46 CB         26.3350    0.7657   -9.7369 C.3       7 UNK        -0.1935 
     47 C          27.5699    2.8215   -8.9573 C.2       7 UNK         0.5018 
     48 O          27.9208    3.6261   -9.8211 O.2       7 UNK        -0.5186 
     49 N          28.3322    2.4579   -7.9137 N.am      8 UNK        -0.4240 
     50 CA         29.6859    2.8992   -7.5433 C.3       8 UNK         0.0235 
     51 CB         29.7505    4.4200   -7.3083 C.3       8 UNK        -0.2000 
     52 C          30.7824    2.4286   -8.5143 C.2       8 UNK         0.4941 
     53 O          31.8062    1.9129   -8.0679 O.2       8 UNK        -0.5273 
     54 N          30.5305    2.5591   -9.8223 N.am      9 UNK        -0.4262 
     55 CA         31.3809    2.1052  -10.9270 C.3       9 UNK         0.0264 
     56 CB         30.9127    2.7967  -12.2191 C.3       9 UNK        -0.1955 
     57 C          31.4206    0.5731  -11.1086 C.2       9 UNK         0.5031 
     58 O          32.1282    0.0940  -11.9957 O.2       9 UNK        -0.5390 
     59 N          30.6745   -0.1725  -10.2803 N.am      10 UNK        -0.4204 
     60 CA         30.6363   -1.6370  -10.2443 C.3       10 UNK         0.0237 
     61 CB         29.4707   -2.0807   -9.3456 C.3       10 UNK        -0.1985 
     62 C          31.9503   -2.2921   -9.7746 C.2       10 UNK         0.4970 
     63 O          32.1206   -3.4933   -9.9873 O.2       10 UNK        -0.4914 
     64 N          32.8453   -1.5162   -9.1532 N.am      11 UNK        -0.4285 
     65 CA         34.1720   -1.9470   -8.7060 C.3       11 UNK         0.1007 
     66 C          35.2221   -0.8117   -8.8547 C.2       11 UNK         0.5703 
     67 N          36.4896   -1.0977   -8.5877 N.am      11 UNK        -0.7361 
     68 O          34.9079    0.3198   -9.2216 O.2       11 UNK        -0.4986 
     69 C69        34.1249   -2.6021   -7.2978 C.3       12 UNK        -0.0947 
     70 S70        33.7202   -1.4552   -5.9353 S.3       12 UNK        -0.2240 
     71 C71        31.9284   -1.6995   -5.7439 C.3       12 UNK         0.0194 
     72 H72        29.3368   -6.8541   -2.6770 H         1 UNK         0.0906 
     73 H73        28.8894   -7.9796   -1.3938 H         1 UNK         0.0906 
     74 H74        27.9033   -7.8675   -2.8544 H         1 UNK         0.0906 
     75 H75        28.7928   -4.7356   -2.2071 H         1 UNK         0.3140 
     76 H76        26.9043   -4.0422   -0.1133 H         1 UNK         0.1085 
     77 H77        27.5136   -1.6760   -0.7613 H         1 UNK         0.0836 
     78 H78        28.4909   -2.2940   -2.0645 H         1 UNK         0.0836 
     79 H79        30.9733   -3.8143   -1.3278 H         1 UNK         0.0731 
     80 H80        31.8483   -2.7228   -0.2833 H         1 UNK         0.0731 
     81 H81        31.6553   -3.2106   -3.5060 H         1 UNK         0.1312 
     82 H82        31.2083    0.7977   -4.9358 H         1 UNK         0.1406 
     83 H83        30.5031   -0.0895   -0.7956 H         1 UNK         0.1631 
     84 H84        30.4305    2.5325   -3.5341 H         1 UNK         0.0717 
     85 H85        31.2344    2.4323   -1.9930 H         1 UNK         0.0717 
     86 H86        28.0096    0.0694   -2.1798 H         1 UNK         0.0934 
     87 H87        26.6936    1.1895   -2.0864 H         1 UNK         0.0934 
     88 H88        28.6345    1.3207   -4.4362 H         1 UNK         0.0739 
     89 H89        26.6126   -0.7763   -4.0880 H         1 UNK         0.3093 
     90 H90        27.3010   -2.1488   -7.2982 H         1 UNK         0.0818 
     91 H91        29.1722   -3.0551   -5.9459 H         1 UNK         0.0819 
     92 H92        28.1413   -3.1688   -4.5284 H         1 UNK         0.0819 
     93 H93        27.8245   -4.1804   -5.9372 H         1 UNK         0.0819 
     94 H94        25.6694   -3.0307   -5.1146 H         1 UNK         0.3041 
     95 H95        22.8148   -1.0453   -5.8637 H         1 UNK         0.0784 
     96 H96        22.6994   -2.7373   -7.7049 H         1 UNK         0.0793 
     97 H97        23.2300   -3.9917   -6.5929 H         1 UNK         0.0793 
     98 H98        21.6797   -3.1849   -6.3488 H         1 UNK         0.0793 
     99 H99        22.9154   -3.2544   -4.1950 H         1 UNK         0.3024 
    100 H100       23.3488   -1.5874   -1.3120 H         1 UNK         0.1171 
    101 H101       22.6086   -3.9083   -0.9079 H         1 UNK         0.0786 
    102 H102       21.7729   -3.2666   -2.3052 H         1 UNK         0.0786 
    103 H103       23.1064   -4.4052   -2.5168 H         1 UNK         0.0786 
    104 H104       25.2135   -2.4432   -0.4589 H         1 UNK         0.2977 
    105 H105       25.1393    0.8924   -4.7061 H         1 UNK         0.3127 
    106 H106       24.4647    3.6414   -5.0961 H         1 UNK         0.0770 
    107 H107       23.0990    1.1834   -6.3101 H         1 UNK         0.0814 
    108 H108       22.3955    2.7721   -6.0761 H         1 UNK         0.0814 
    109 H109       22.7952    1.7844   -4.6783 H         1 UNK         0.0814 
    110 H110       25.4685    1.0602   -7.4008 H         1 UNK         0.2983 
    111 H111       25.5696    2.7727   -9.7165 H         1 UNK         0.0947 
    112 H112       26.9157    0.0807   -9.1180 H         1 UNK         0.0806 
    113 H113       26.8345    0.8405  -10.7038 H         1 UNK         0.0806 
    114 H114       25.3599    0.3096   -9.9091 H         1 UNK         0.0806 
    115 H115       27.9847    1.7001   -7.3340 H         1 UNK         0.3000 
    116 H116       29.8917    2.4154   -6.5870 H         1 UNK         0.0850 
    117 H117       29.0128    4.7345   -6.5695 H         1 UNK         0.0810 
    118 H118       29.5718    4.9861   -8.2228 H         1 UNK         0.0810 
    119 H119       30.7317    4.7128   -6.9327 H         1 UNK         0.0810 
    120 H120       29.6473    2.9997  -10.0730 H         1 UNK         0.3040 
    121 H121       32.4037    2.4252  -10.7170 H         1 UNK         0.0766 
    122 H122       31.5498    2.5286  -13.0631 H         1 UNK         0.0812 
    123 H123       30.9477    3.8821  -12.1233 H         1 UNK         0.0812 
    124 H124       29.8912    2.5153  -12.4783 H         1 UNK         0.0812 
    125 H125       30.1353    0.3098   -9.5767 H         1 UNK         0.3205 
    126 H126       30.4434   -1.9912  -11.2590 H         1 UNK         0.0754 
    127 H127       29.3847   -3.1680   -9.3212 H         1 UNK         0.0769 
    128 H128       28.5186   -1.6916   -9.7057 H         1 UNK         0.0769 
    129 H129       29.6087   -1.7431   -8.3182 H         1 UNK         0.0769 
    130 H130       32.6642   -0.5268   -9.0444 H         1 UNK         0.2981 
    131 H131       34.5106   -2.7120   -9.4075 H         1 UNK         0.0541 
    132 H132       36.7654   -2.0194   -8.2875 H         1 UNK         0.3459 
    133 H133       37.1838   -0.3731   -8.6823 H         1 UNK         0.3459 
    134 H134       33.4171   -3.4320   -7.2967 H         1 UNK         0.0612 
    135 H135       35.0905   -3.0543   -7.0678 H         1 UNK         0.0612 
    136 H136       31.3986   -1.1381   -6.5154 H         1 UNK         0.0624 
    137 H137       31.6766   -2.7504   -5.8920 H         1 UNK         0.0624 
@<TRIPOS>BOND
     1    1    2 1    
     2    1   72 1    
     3    1   73 1    
     4    1   74 1    
     5    2    3 2    
     6    2    4 am   BACKBONE|DICT|INTERRES
     7    4    5 1    
     8    4   75 1    
     9    5    6 1    
    10    5   35 1    
    11    5   76 1    
    12    6    7 1    
    13    6   77 1    
    14    6   78 1    
    15    7    8 1    
    16    8    9 1    
    17    8   79 1    
    18    8   80 1    
    19    9   10 ar   
    20    9   14 ar   
    21   10   11 ar   
    22   10   81 1    
    23   11   12 ar   
    24   11   71 1    
    25   12   13 ar   
    26   12   82 1    
    27   13   14 ar   
    28   13   15 1    
    29   14   83 1    
    30   15   16 1    
    31   15   84 1    
    32   15   85 1    
    33   16   17 1    
    34   17   18 1    
    35   17   86 1    
    36   17   87 1    
    37   18   19 1    
    38   18   37 1    
    39   18   88 1    
    40   19   20 am   BACKBONE|DICT|INTERRES
    41   19   89 1    
    42   20   21 2    
    43   20   22 1    
    44   22   23 1    
    45   22   24 1    
    46   22   90 1    
    47   23   91 1    
    48   23   92 1    
    49   23   93 1    
    50   24   25 am   BACKBONE|DICT|INTERRES
    51   24   94 1    
    52   25   26 2    
    53   25   27 1    
    54   27   28 1    
    55   27   29 1    
    56   27   95 1    
    57   28   96 1    
    58   28   97 1    
    59   28   98 1    
    60   29   30 am   BACKBONE|DICT|INTERRES
    61   29   99 1    
    62   30   31 2    
    63   30   32 1    
    64   32   33 1    
    65   32   34 1    
    66   32  100 1    
    67   33  101 1    
    68   33  102 1    
    69   33  103 1    
    70   34   35 am   BACKBONE|DICT|INTERRES
    71   34  104 1    
    72   35   36 2    
    73   37   38 2    
    74   37   39 am   BACKBONE|DICT|INTERRES
    75   39   40 1    
    76   39  105 1    
    77   40   41 1    
    78   40   42 1    
    79   40  106 1    
    80   41  107 1    
    81   41  108 1    
    82   41  109 1    
    83   42   43 2    
    84   42   44 am   BACKBONE|DICT|INTERRES
    85   44   45 1    
    86   44  110 1    
    87   45   46 1    
    88   45   47 1    
    89   45  111 1    
    90   46  112 1    
    91   46  113 1    
    92   46  114 1    
    93   47   48 2    
    94   47   49 am   BACKBONE|DICT|INTERRES
    95   49   50 1    
    96   49  115 1    
    97   50   51 1    
    98   50   52 1    
    99   50  116 1    
   100   51  117 1    
   101   51  118 1    
   102   51  119 1    
   103   52   53 2    
   104   52   54 am   BACKBONE|DICT|INTERRES
   105   54   55 1    
   106   54  120 1    
   107   55   56 1    
   108   55   57 1    
   109   55  121 1    
   110   56  122 1    
   111   56  123 1    
   112   56  124 1    
   113   57   58 2    
   114   57   59 am   BACKBONE|DICT|INTERRES
   115   59   60 1    
   116   59  125 1    
   117   60   61 1    
   118   60   62 1    
   119   60  126 1    
   120   61  127 1    
   121   61  128 1    
   122   61  129 1    
   123   62   63 2    
   124   62   64 am   BACKBONE|DICT|INTERRES
   125   64   65 1    
   126   64  130 1    
   127   65   66 1    
   128   65   69 1    
   129   65  131 1    
   130   66   67 am   BACKBONE|DICT|INTERRES
   131   66   68 2    
   132   67  132 1    
   133   67  133 1    
   134   69   70 1    
   135   69  134 1    
   136   69  135 1    
   137   70   71 1    
   138   71  136 1    
   139   71  137 1    
@<TRIPOS>SUBSTRUCTURE
     1 UNK         1 GROUP             0       ****    0 ROOT    
