@<TRIPOS>MOLECULE
3R137
137   139    1
SMALL
USER_CHARGES


@<TRIPOS>ATOM
      1 CA         28.0409   -5.3675   -2.7200 C.3       0 UNK        -0.2020 
      2 C          27.6965   -4.4508   -1.5588 C.2       0 UNK         0.4855 
      3 O          26.7279   -4.7031   -0.8428 O.2       0 UNK        -0.5197 
      4 N          28.4805   -3.3812   -1.3684 N.am      1 UNK        -0.4892 
      5 CA         28.3758   -2.4450   -0.2350 C.3       1 UNK         0.0835 
      6 C6         29.7094   -1.6982    0.0354 C.3       12 UNK        -0.0855 
      7 S7         31.1305   -2.8433    0.1933 S.3       12 UNK        -0.2931 
      8 C8         32.3355   -2.2017   -1.0196 C.3       12 UNK         0.0378 
      9 C9         31.7404   -2.0181   -2.4095 C.ar      12 UNK        -0.0802 
     10 C10        31.3520   -3.1233   -3.1721 C.ar      12 UNK        -0.0944 
     11 C11        30.7609   -2.9479   -4.4283 C.ar      12 UNK        -0.0787 
     12 C12        30.5690   -1.6526   -4.9224 C.ar      12 UNK        -0.0862 
     13 C13        30.9837   -0.5413   -4.1796 C.ar      12 UNK        -0.0733 
     14 C14        31.5709   -0.7318   -2.9278 C.ar      12 UNK        -0.0832 
     15 C15        30.8077    0.8703   -4.7206 C.3       12 UNK         0.0240 
     16 S16        29.5338    1.8152   -3.8205 S.3       12 UNK        -0.2522 
     17 C17        28.0362    0.8523   -4.1979 C.3       12 UNK        -0.0967 
     18 CA         27.5919    1.0113   -5.6754 C.3       5 UNK         0.0660 
     19 N          27.1742   -0.2703   -6.2412 N.am      5 UNK        -0.4015 
     20 C          26.8514   -0.5168   -7.5150 C.2       4 UNK         0.4946 
     21 O          26.8606    0.3448   -8.3953 O.2       4 UNK        -0.5353 
     22 CA         26.3832   -1.9475   -7.8533 C.3       4 UNK         0.0277 
     23 CB         27.5822   -2.8819   -8.1100 C.3       4 UNK        -0.1981 
     24 N          25.4537   -2.5140   -6.8581 N.am      4 UNK        -0.4209 
     25 C          25.7114   -2.8465   -5.5849 C.2       3 UNK         0.4942 
     26 O          26.8351   -2.8196   -5.0755 O.2       3 UNK        -0.5208 
     27 CA         24.5015   -3.1789   -4.6971 C.3       3 UNK         0.0250 
     28 CB         24.3506   -4.6988   -4.5301 C.3       3 UNK        -0.1990 
     29 N          24.6511   -2.5557   -3.3787 N.am      3 UNK        -0.4232 
     30 C          24.7605   -1.2333   -3.1681 C.2       2 UNK         0.4993 
     31 O          24.6024   -0.3814   -4.0423 O.2       2 UNK        -0.5286 
     32 CA         25.2106   -0.8058   -1.7700 C.3       2 UNK         0.0209 
     33 CB         24.0831   -1.0268   -0.7408 C.3       2 UNK        -0.1931 
     34 N          26.4156   -1.5664   -1.4414 N.am      2 UNK        -0.4546 
     35 C          27.1879   -1.4587   -0.3548 C.2       1 UNK         0.5154 
     36 O          26.9968   -0.6290    0.5355 O.2       1 UNK        -0.5181 
     37 C          26.5452    2.1285   -5.8591 C.2       5 UNK         0.5014 
     38 O          26.9189    3.2601   -6.1673 O.2       5 UNK        -0.5248 
     39 N          25.2535    1.7857   -5.7494 N.am      6 UNK        -0.4434 
     40 CA         24.1175    2.6650   -6.0492 C.3       6 UNK         0.0363 
     41 CB         22.8129    1.9481   -5.6667 C.3       6 UNK        -0.1936 
     42 C          24.0552    3.1456   -7.5142 C.2       6 UNK         0.5081 
     43 O          23.4654    4.1945   -7.7736 O.2       6 UNK        -0.5248 
     44 N          24.6737    2.3954   -8.4371 N.am      7 UNK        -0.4718 
     45 CA         24.8404    2.7545   -9.8484 C.3       7 UNK         0.0273 
     46 CB         24.5708    1.5071  -10.7098 C.3       7 UNK        -0.1935 
     47 C          26.2399    3.3371  -10.1355 C.2       7 UNK         0.5018 
     48 O          26.5739    3.5349  -11.3044 O.2       7 UNK        -0.5186 
     49 N          27.0332    3.5889   -9.0809 N.am      8 UNK        -0.4240 
     50 CA         28.4134    4.0883   -9.0814 C.3       8 UNK         0.0235 
     51 CB         28.4957    5.5023   -9.6962 C.3       8 UNK        -0.2000 
     52 C          29.4398    3.1126   -9.6915 C.2       8 UNK         0.4941 
     53 O          30.5308    3.5463  -10.0678 O.2       8 UNK        -0.5273 
     54 N          29.1060    1.8167   -9.7632 N.am      9 UNK        -0.4262 
     55 CA         30.0013    0.7674  -10.2414 C.3       9 UNK         0.0264 
     56 CB         29.1760   -0.3240  -10.9441 C.3       9 UNK        -0.1955 
     57 C          30.8031    0.2195   -9.0536 C.2       9 UNK         0.5031 
     58 O          30.2894   -0.6088   -8.3012 O.2       9 UNK        -0.5390 
     59 N          32.0334    0.7200   -8.8837 N.am      10 UNK        -0.4204 
     60 CA         32.9770    0.2698   -7.8599 C.3       10 UNK         0.0237 
     61 CB         34.1270    1.2828   -7.7370 C.3       10 UNK        -0.1985 
     62 C          33.5043   -1.1360   -8.1830 C.2       10 UNK         0.4970 
     63 O          34.1054   -1.3270   -9.2428 O.2       10 UNK        -0.4914 
     64 N          33.2590   -2.0842   -7.2745 N.am      11 UNK        -0.4285 
     65 CA         33.6839   -3.4844   -7.3961 C.3       11 UNK         0.1007 
     66 C          35.2017   -3.6698   -7.1275 C.2       11 UNK         0.5703 
     67 N          35.8098   -4.6989   -7.7019 N.am      11 UNK        -0.7361 
     68 O          35.8249   -2.9154   -6.3819 O.2       11 UNK        -0.4986 
     69 C69        32.8353   -4.4160   -6.4934 C.3       12 UNK        -0.0947 
     70 S70        31.0551   -4.2886   -6.8787 S.3       12 UNK        -0.2240 
     71 C71        30.3007   -4.1631   -5.2264 C.3       12 UNK         0.0194 
     72 H72        27.5631   -6.3392   -2.5966 H         1 UNK         0.0906 
     73 H73        27.6972   -4.9373   -3.6592 H         1 UNK         0.0906 
     74 H74        29.1161   -5.5303   -2.7787 H         1 UNK         0.0906 
     75 H75        29.2621   -3.2144   -1.9888 H         1 UNK         0.3140 
     76 H76        28.1633   -3.0433    0.6542 H         1 UNK         0.1085 
     77 H77        29.6415   -1.1321    0.9664 H         1 UNK         0.0836 
     78 H78        29.8967   -0.9590   -0.7434 H         1 UNK         0.0836 
     79 H79        33.1781   -2.8920   -1.0792 H         1 UNK         0.0731 
     80 H80        32.7406   -1.2604   -0.6445 H         1 UNK         0.0731 
     81 H81        31.4950   -4.1189   -2.7740 H         1 UNK         0.1312 
     82 H82        30.0995   -1.5149   -5.8874 H         1 UNK         0.1406 
     83 H83        31.8770    0.1294   -2.3490 H         1 UNK         0.1631 
     84 H84        30.5622    0.8478   -5.7818 H         1 UNK         0.0717 
     85 H85        31.7564    1.4033   -4.6428 H         1 UNK         0.0717 
     86 H86        27.2464    1.1439   -3.5027 H         1 UNK         0.0934 
     87 H87        28.2454   -0.1911   -3.9563 H         1 UNK         0.0934 
     88 H88        28.4459    1.3117   -6.2838 H         1 UNK         0.0739 
     89 H89        27.1350   -1.0642   -5.6068 H         1 UNK         0.3093 
     90 H90        25.8171   -1.8784   -8.7836 H         1 UNK         0.0818 
     91 H91        28.1727   -2.5406   -8.9592 H         1 UNK         0.0819 
     92 H92        28.2592   -2.9216   -7.2572 H         1 UNK         0.0819 
     93 H93        27.2575   -3.8988   -8.3291 H         1 UNK         0.0819 
     94 H94        24.4898   -2.5532   -7.1609 H         1 UNK         0.3041 
     95 H95        23.5953   -2.7796   -5.1576 H         1 UNK         0.0784 
     96 H96        24.2267   -5.1880   -5.4972 H         1 UNK         0.0793 
     97 H97        25.2238   -5.1423   -4.0504 H         1 UNK         0.0793 
     98 H98        23.4760   -4.9469   -3.9284 H         1 UNK         0.0793 
     99 H99        24.7914   -3.1817   -2.5988 H         1 UNK         0.3024 
    100 H100       25.4649    0.2557   -1.8011 H         1 UNK         0.1171 
    101 H101       24.3396   -0.6073    0.2318 H         1 UNK         0.0786 
    102 H102       23.1612   -0.5399   -1.0623 H         1 UNK         0.0786 
    103 H103       23.8627   -2.0853   -0.5985 H         1 UNK         0.0786 
    104 H104       26.7002   -2.2480   -2.1330 H         1 UNK         0.2977 
    105 H105       25.0266    0.8612   -5.3870 H         1 UNK         0.3127 
    106 H106       24.2162    3.5538   -5.4225 H         1 UNK         0.0770 
    107 H107       22.6829    1.0223   -6.2285 H         1 UNK         0.0814 
    108 H108       21.9452    2.5781   -5.8673 H         1 UNK         0.0814 
    109 H109       22.7931    1.7009   -4.6051 H         1 UNK         0.0814 
    110 H110       25.1774    1.5671   -8.1390 H         1 UNK         0.2983 
    111 H111       24.1142    3.5207  -10.1282 H         1 UNK         0.0947 
    112 H112       25.3080    0.7238  -10.5312 H         1 UNK         0.0806 
    113 H113       24.6064    1.7494  -11.7727 H         1 UNK         0.0806 
    114 H114       23.5835    1.0915  -10.5080 H         1 UNK         0.0806 
    115 H115       26.6655    3.3891   -8.1561 H         1 UNK         0.3000 
    116 H116       28.6919    4.1786   -8.0306 H         1 UNK         0.0850 
    117 H117       29.4828    5.9398   -9.5418 H         1 UNK         0.0810 
    118 H118       27.7708    6.1763   -9.2399 H         1 UNK         0.0810 
    119 H119       28.3134    5.4891  -10.7711 H         1 UNK         0.0810 
    120 H120       28.2222    1.5043   -9.3709 H         1 UNK         0.3040 
    121 H121       30.6980    1.1711  -10.9795 H         1 UNK         0.0766 
    122 H122       28.7102    0.0603  -11.8515 H         1 UNK         0.0812 
    123 H123       28.3825   -0.7079  -10.3057 H         1 UNK         0.0812 
    124 H124       29.8049   -1.1676  -11.2311 H         1 UNK         0.0812 
    125 H125       32.3705    1.4092   -9.5411 H         1 UNK         0.3205 
    126 H126       32.4587    0.2361   -6.9024 H         1 UNK         0.0754 
    127 H127       34.8388    0.9716   -6.9710 H         1 UNK         0.0769 
    128 H128       33.7581    2.2692   -7.4546 H         1 UNK         0.0769 
    129 H129       34.6790    1.3852   -8.6723 H         1 UNK         0.0769 
    130 H130       32.7523   -1.8529   -6.4332 H         1 UNK         0.2981 
    131 H131       33.5053   -3.7845   -8.4310 H         1 UNK         0.0541 
    132 H132       36.7925   -4.8448   -7.5305 H         1 UNK         0.3459 
    133 H133       35.3082   -5.3307   -8.3068 H         1 UNK         0.3459 
    134 H134       33.1289   -5.4577   -6.6332 H         1 UNK         0.0612 
    135 H135       33.0096   -4.1891   -5.4406 H         1 UNK         0.0612 
    136 H136       30.5134   -5.0869   -4.6872 H         1 UNK         0.0624 
    137 H137       29.2185   -4.1160   -5.3447 H         1 UNK         0.0624 
@<TRIPOS>BOND
     1    1    2 1    
     2    1   72 1    
     3    1   73 1    
     4    1   74 1    
     5    2    3 2    
     6    2    4 am   BACKBONE|DICT|INTERRES
     7    4    5 1    
     8    4   75 1    
     9    5    6 1    
    10    5   35 1    
    11    5   76 1    
    12    6    7 1    
    13    6   77 1    
    14    6   78 1    
    15    7    8 1    
    16    8    9 1    
    17    8   79 1    
    18    8   80 1    
    19    9   10 ar   
    20    9   14 ar   
    21   10   11 ar   
    22   10   81 1    
    23   11   12 ar   
    24   11   71 1    
    25   12   13 ar   
    26   12   82 1    
    27   13   14 ar   
    28   13   15 1    
    29   14   83 1    
    30   15   16 1    
    31   15   84 1    
    32   15   85 1    
    33   16   17 1    
    34   17   18 1    
    35   17   86 1    
    36   17   87 1    
    37   18   19 1    
    38   18   37 1    
    39   18   88 1    
    40   19   20 am   BACKBONE|DICT|INTERRES
    41   19   89 1    
    42   20   21 2    
    43   20   22 1    
    44   22   23 1    
    45   22   24 1    
    46   22   90 1    
    47   23   91 1    
    48   23   92 1    
    49   23   93 1    
    50   24   25 am   BACKBONE|DICT|INTERRES
    51   24   94 1    
    52   25   26 2    
    53   25   27 1    
    54   27   28 1    
    55   27   29 1    
    56   27   95 1    
    57   28   96 1    
    58   28   97 1    
    59   28   98 1    
    60   29   30 am   BACKBONE|DICT|INTERRES
    61   29   99 1    
    62   30   31 2    
    63   30   32 1    
    64   32   33 1    
    65   32   34 1    
    66   32  100 1    
    67   33  101 1    
    68   33  102 1    
    69   33  103 1    
    70   34   35 am   BACKBONE|DICT|INTERRES
    71   34  104 1    
    72   35   36 2    
    73   37   38 2    
    74   37   39 am   BACKBONE|DICT|INTERRES
    75   39   40 1    
    76   39  105 1    
    77   40   41 1    
    78   40   42 1    
    79   40  106 1    
    80   41  107 1    
    81   41  108 1    
    82   41  109 1    
    83   42   43 2    
    84   42   44 am   BACKBONE|DICT|INTERRES
    85   44   45 1    
    86   44  110 1    
    87   45   46 1    
    88   45   47 1    
    89   45  111 1    
    90   46  112 1    
    91   46  113 1    
    92   46  114 1    
    93   47   48 2    
    94   47   49 am   BACKBONE|DICT|INTERRES
    95   49   50 1    
    96   49  115 1    
    97   50   51 1    
    98   50   52 1    
    99   50  116 1    
   100   51  117 1    
   101   51  118 1    
   102   51  119 1    
   103   52   53 2    
   104   52   54 am   BACKBONE|DICT|INTERRES
   105   54   55 1    
   106   54  120 1    
   107   55   56 1    
   108   55   57 1    
   109   55  121 1    
   110   56  122 1    
   111   56  123 1    
   112   56  124 1    
   113   57   58 2    
   114   57   59 am   BACKBONE|DICT|INTERRES
   115   59   60 1    
   116   59  125 1    
   117   60   61 1    
   118   60   62 1    
   119   60  126 1    
   120   61  127 1    
   121   61  128 1    
   122   61  129 1    
   123   62   63 2    
   124   62   64 am   BACKBONE|DICT|INTERRES
   125   64   65 1    
   126   64  130 1    
   127   65   66 1    
   128   65   69 1    
   129   65  131 1    
   130   66   67 am   BACKBONE|DICT|INTERRES
   131   66   68 2    
   132   67  132 1    
   133   67  133 1    
   134   69   70 1    
   135   69  134 1    
   136   69  135 1    
   137   70   71 1    
   138   71  136 1    
   139   71  137 1    
@<TRIPOS>SUBSTRUCTURE
     1 UNK         1 GROUP             0       ****    0 ROOT    
