@<TRIPOS>MOLECULE
3R137
137   139    1
SMALL
USER_CHARGES


@<TRIPOS>ATOM
      1 CA         26.9314   -5.6432    0.1469 C.3       0 UNK        -0.2020 
      2 C          26.5810   -4.2609    0.6755 C.2       0 UNK         0.4855 
      3 O          25.9383   -4.1443    1.7195 O.2       0 UNK        -0.5197 
      4 N          26.9804   -3.2062   -0.0453 N.am      1 UNK        -0.4892 
      5 CA         26.7418   -1.7928    0.2756 C.3       1 UNK         0.0835 
      6 C6         27.8344   -0.8757   -0.3423 C.3       12 UNK        -0.0855 
      7 S7         28.1322   -1.1401   -2.1282 S.3       12 UNK        -0.2931 
      8 C8         29.6885   -2.0917   -2.0868 C.3       12 UNK         0.0378 
      9 C9         30.1059   -2.5278   -3.4831 C.ar      12 UNK        -0.0802 
     10 C10        31.3353   -2.1337   -4.0180 C.ar      12 UNK        -0.0944 
     11 C11        31.6961   -2.5001   -5.3190 C.ar      12 UNK        -0.0787 
     12 C12        30.8140   -3.2736   -6.0838 C.ar      12 UNK        -0.0862 
     13 C13        29.5891   -3.6946   -5.5528 C.ar      12 UNK        -0.0733 
     14 C14        29.2545   -3.3301   -4.2447 C.ar      12 UNK        -0.0832 
     15 C15        28.6579   -4.5818   -6.3755 C.3       12 UNK         0.0240 
     16 S16        26.8854   -4.1959   -6.1444 S.3       12 UNK        -0.2522 
     17 C17        26.5215   -3.0850   -7.5454 C.3       12 UNK        -0.0967 
     18 CA         26.5407   -1.5698   -7.2179 C.3       5 UNK         0.0660 
     19 N          25.8009   -1.2280   -5.9973 N.am      5 UNK        -0.4015 
     20 C          25.3499   -0.0055   -5.6790 C.2       4 UNK         0.4946 
     21 O          25.5769    0.9910   -6.3692 O.2       4 UNK        -0.5353 
     22 CA         24.5589    0.1556   -4.3632 C.3       4 UNK         0.0277 
     23 CB         23.3525    1.1024   -4.5321 C.3       4 UNK        -0.1981 
     24 N          24.1452   -1.0983   -3.7154 N.am      4 UNK        -0.4209 
     25 C          23.3218   -2.0452   -4.1987 C.2       3 UNK         0.4942 
     26 O          22.8134   -2.0069   -5.3190 O.2       3 UNK        -0.5208 
     27 CA         23.0300   -3.2590   -3.2953 C.3       3 UNK         0.0250 
     28 CB         23.9358   -4.4401   -3.6828 C.3       3 UNK        -0.1990 
     29 N          23.2007   -2.9794   -1.8686 N.am      3 UNK        -0.4232 
     30 C          22.4166   -2.1722   -1.1394 C.2       2 UNK         0.4993 
     31 O          21.3843   -1.6524   -1.5641 O.2       2 UNK        -0.5286 
     32 CA         22.8745   -1.8736    0.3009 C.3       2 UNK         0.0209 
     33 CB         22.0960   -2.7401    1.3041 C.3       2 UNK        -0.1931 
     34 N          24.3145   -2.0619    0.5214 N.am      2 UNK        -0.4546 
     35 C          25.2960   -1.3723   -0.0774 C.2       1 UNK         0.5154 
     36 O          25.0820   -0.4869   -0.9071 O.2       1 UNK        -0.5181 
     37 C          27.9532   -0.9574   -7.3027 C.2       5 UNK         0.5014 
     38 O          28.5520   -1.0118   -8.3772 O.2       5 UNK        -0.5248 
     39 N          28.4351   -0.3149   -6.2281 N.am      6 UNK        -0.4434 
     40 CA         29.6461    0.5084   -6.2206 C.3       6 UNK         0.0363 
     41 CB         29.8737    1.0869   -4.8155 C.3       6 UNK        -0.1936 
     42 C          29.6150    1.6477   -7.2528 C.2       6 UNK         0.5081 
     43 O          30.6449    1.9421   -7.8592 O.2       6 UNK        -0.5248 
     44 N          28.4287    2.2374   -7.4640 N.am      7 UNK        -0.4718 
     45 CA         28.1903    3.2795   -8.4647 C.3       7 UNK         0.0273 
     46 CB         26.8338    3.9458   -8.1858 C.3       7 UNK        -0.1935 
     47 C          28.2456    2.7522   -9.9093 C.2       7 UNK         0.5018 
     48 O          28.6406    3.4984  -10.8052 O.2       7 UNK        -0.5186 
     49 N          27.8592    1.4842  -10.1090 N.am      8 UNK        -0.4240 
     50 CA         27.9278    0.7914  -11.3967 C.3       8 UNK         0.0235 
     51 CB         26.9207   -0.3709  -11.4174 C.3       8 UNK        -0.2000 
     52 C          29.3510    0.2929  -11.6888 C.2       8 UNK         0.4941 
     53 O          29.8239    0.4391  -12.8163 O.2       8 UNK        -0.5273 
     54 N          30.0098   -0.2710  -10.6662 N.am      9 UNK        -0.4262 
     55 CA         31.3933   -0.7471  -10.7177 C.3       9 UNK         0.0264 
     56 CB         31.6810   -1.5882   -9.4631 C.3       9 UNK        -0.1955 
     57 C          32.4261    0.3858  -10.8474 C.2       9 UNK         0.5031 
     58 O          33.4881    0.1594  -11.4289 O.2       9 UNK        -0.5390 
     59 N          32.1042    1.5642  -10.2904 N.am      10 UNK        -0.4204 
     60 CA         32.9430    2.7645  -10.1844 C.3       10 UNK         0.0237 
     61 CB         33.2618    3.3519  -11.5760 C.3       10 UNK        -0.1985 
     62 C          34.1956    2.5307   -9.3164 C.2       10 UNK         0.4970 
     63 O          35.2559    3.0936   -9.5949 O.2       10 UNK        -0.4914 
     64 N          34.0452    1.6968   -8.2798 N.am      11 UNK        -0.4285 
     65 CA         35.1014    1.3204   -7.3292 C.3       11 UNK         0.1007 
     66 C          35.3936    2.3788   -6.2249 C.2       11 UNK         0.5703 
     67 N          34.6007    3.4355   -6.0873 N.am      11 UNK        -0.7361 
     68 O          36.3708    2.2469   -5.4914 O.2       11 UNK        -0.4986 
     69 C69        34.8540   -0.0970   -6.7457 C.3       12 UNK        -0.0947 
     70 S70        33.2383   -0.2673   -5.9179 S.3       12 UNK        -0.2240 
     71 C71        33.0463   -2.0771   -5.8868 C.3       12 UNK         0.0194 
     72 H72        27.4932   -5.5940   -0.7858 H         1 UNK         0.0906 
     73 H73        27.5345   -6.1814    0.8778 H         1 UNK         0.0906 
     74 H74        26.0230   -6.2173   -0.0339 H         1 UNK         0.0906 
     75 H75        27.4707   -3.3562   -0.9153 H         1 UNK         0.3140 
     76 H76        26.8195   -1.6767    1.3593 H         1 UNK         0.1085 
     77 H77        27.5875    0.1762   -0.1858 H         1 UNK         0.0836 
     78 H78        28.7718   -1.0269    0.1952 H         1 UNK         0.0836 
     79 H79        30.4655   -1.4802   -1.6251 H         1 UNK         0.0731 
     80 H80        29.5703   -2.9746   -1.4577 H         1 UNK         0.0731 
     81 H81        32.0097   -1.5262   -3.4299 H         1 UNK         0.1312 
     82 H82        31.0880   -3.5625   -7.0889 H         1 UNK         0.1406 
     83 H83        28.3164   -3.6548   -3.8169 H         1 UNK         0.1631 
     84 H84        28.8232   -5.6155   -6.0696 H         1 UNK         0.0717 
     85 H85        28.9120   -4.5339   -7.4353 H         1 UNK         0.0717 
     86 H86        27.1708   -3.3194   -8.3913 H         1 UNK         0.0934 
     87 H87        25.5192   -3.3476   -7.8880 H         1 UNK         0.0934 
     88 H88        25.9980   -1.0861   -8.0334 H         1 UNK         0.0739 
     89 H89        25.5908   -1.9985   -5.3801 H         1 UNK         0.3093 
     90 H90        25.2498    0.6290   -3.6637 H         1 UNK         0.0818 
     91 H91        22.8249    1.2429   -3.5886 H         1 UNK         0.0819 
     92 H92        23.6704    2.0886   -4.8730 H         1 UNK         0.0819 
     93 H93        22.6384    0.7216   -5.2629 H         1 UNK         0.0819 
     94 H94        24.4922   -1.2070   -2.7677 H         1 UNK         0.3041 
     95 H95        21.9908   -3.5503   -3.4626 H         1 UNK         0.0784 
     96 H96        23.8268   -4.6864   -4.7402 H         1 UNK         0.0793 
     97 H97        24.9895   -4.2183   -3.5083 H         1 UNK         0.0793 
     98 H98        23.6832   -5.3368   -3.1167 H         1 UNK         0.0793 
     99 H99        24.0128   -3.3758   -1.4198 H         1 UNK         0.3024 
    100 H100       22.6438   -0.8239    0.4966 H         1 UNK         0.1171 
    101 H101       22.3107   -3.8014    1.1721 H         1 UNK         0.0786 
    102 H102       22.3405   -2.4733    2.3325 H         1 UNK         0.0786 
    103 H103       21.0197   -2.6069    1.1840 H         1 UNK         0.0786 
    104 H104       24.5943   -2.8036    1.1578 H         1 UNK         0.2977 
    105 H105       27.8955   -0.3362   -5.3759 H         1 UNK         0.3127 
    106 H106       30.4763   -0.1477   -6.4766 H         1 UNK         0.0770 
    107 H107       29.0561    1.7397   -4.5077 H         1 UNK         0.0814 
    108 H108       30.7929    1.6734   -4.7823 H         1 UNK         0.0814 
    109 H109       29.9704    0.3011   -4.0696 H         1 UNK         0.0814 
    110 H110       27.6243    1.9165   -6.9376 H         1 UNK         0.2983 
    111 H111       28.9723    4.0354   -8.3618 H         1 UNK         0.0947 
    112 H112       26.6319    4.7391   -8.9069 H         1 UNK         0.0806 
    113 H113       26.8104    4.3971   -7.1938 H         1 UNK         0.0806 
    114 H114       26.0121    3.2306   -8.2471 H         1 UNK         0.0806 
    115 H115       27.5977    0.9313   -9.3053 H         1 UNK         0.3000 
    116 H116       27.6490    1.4920  -12.1872 H         1 UNK         0.0850 
    117 H117       26.9306   -0.8742  -12.3851 H         1 UNK         0.0810 
    118 H118       25.9036   -0.0170  -11.2479 H         1 UNK         0.0810 
    119 H119       27.1448   -1.1224  -10.6599 H         1 UNK         0.0810 
    120 H120       29.5103   -0.4227   -9.7904 H         1 UNK         0.3040 
    121 H121       31.4960   -1.3903  -11.5942 H         1 UNK         0.0766 
    122 H122       31.5595   -1.0038   -8.5505 H         1 UNK         0.0812 
    123 H123       32.7018   -1.9723   -9.4731 H         1 UNK         0.0812 
    124 H124       31.0105   -2.4454   -9.4002 H         1 UNK         0.0812 
    125 H125       31.2445    1.6061   -9.7512 H         1 UNK         0.3205 
    126 H126       32.3419    3.5012   -9.6494 H         1 UNK         0.0754 
    127 H127       33.7554    4.3204  -11.4873 H         1 UNK         0.0769 
    128 H128       32.3528    3.5042  -12.1580 H         1 UNK         0.0769 
    129 H129       33.9233    2.7025  -12.1501 H         1 UNK         0.0769 
    130 H130       33.1284    1.3161   -8.0903 H         1 UNK         0.2981 
    131 H131       36.0303    1.2537   -7.8988 H         1 UNK         0.0541 
    132 H132       33.7940    3.5479   -6.6793 H         1 UNK         0.3459 
    133 H133       34.8052    4.1168   -5.3737 H         1 UNK         0.3459 
    134 H134       35.6420   -0.3766   -6.0442 H         1 UNK         0.0612 
    135 H135       34.9030   -0.8273   -7.5548 H         1 UNK         0.0612 
    136 H136       33.1763   -2.4660   -6.8975 H         1 UNK         0.0624 
    137 H137       33.8419   -2.5108   -5.2797 H         1 UNK         0.0624 
@<TRIPOS>BOND
     1    1    2 1    
     2    1   72 1    
     3    1   73 1    
     4    1   74 1    
     5    2    3 2    
     6    2    4 am   BACKBONE|DICT|INTERRES
     7    4    5 1    
     8    4   75 1    
     9    5    6 1    
    10    5   35 1    
    11    5   76 1    
    12    6    7 1    
    13    6   77 1    
    14    6   78 1    
    15    7    8 1    
    16    8    9 1    
    17    8   79 1    
    18    8   80 1    
    19    9   10 ar   
    20    9   14 ar   
    21   10   11 ar   
    22   10   81 1    
    23   11   12 ar   
    24   11   71 1    
    25   12   13 ar   
    26   12   82 1    
    27   13   14 ar   
    28   13   15 1    
    29   14   83 1    
    30   15   16 1    
    31   15   84 1    
    32   15   85 1    
    33   16   17 1    
    34   17   18 1    
    35   17   86 1    
    36   17   87 1    
    37   18   19 1    
    38   18   37 1    
    39   18   88 1    
    40   19   20 am   BACKBONE|DICT|INTERRES
    41   19   89 1    
    42   20   21 2    
    43   20   22 1    
    44   22   23 1    
    45   22   24 1    
    46   22   90 1    
    47   23   91 1    
    48   23   92 1    
    49   23   93 1    
    50   24   25 am   BACKBONE|DICT|INTERRES
    51   24   94 1    
    52   25   26 2    
    53   25   27 1    
    54   27   28 1    
    55   27   29 1    
    56   27   95 1    
    57   28   96 1    
    58   28   97 1    
    59   28   98 1    
    60   29   30 am   BACKBONE|DICT|INTERRES
    61   29   99 1    
    62   30   31 2    
    63   30   32 1    
    64   32   33 1    
    65   32   34 1    
    66   32  100 1    
    67   33  101 1    
    68   33  102 1    
    69   33  103 1    
    70   34   35 am   BACKBONE|DICT|INTERRES
    71   34  104 1    
    72   35   36 2    
    73   37   38 2    
    74   37   39 am   BACKBONE|DICT|INTERRES
    75   39   40 1    
    76   39  105 1    
    77   40   41 1    
    78   40   42 1    
    79   40  106 1    
    80   41  107 1    
    81   41  108 1    
    82   41  109 1    
    83   42   43 2    
    84   42   44 am   BACKBONE|DICT|INTERRES
    85   44   45 1    
    86   44  110 1    
    87   45   46 1    
    88   45   47 1    
    89   45  111 1    
    90   46  112 1    
    91   46  113 1    
    92   46  114 1    
    93   47   48 2    
    94   47   49 am   BACKBONE|DICT|INTERRES
    95   49   50 1    
    96   49  115 1    
    97   50   51 1    
    98   50   52 1    
    99   50  116 1    
   100   51  117 1    
   101   51  118 1    
   102   51  119 1    
   103   52   53 2    
   104   52   54 am   BACKBONE|DICT|INTERRES
   105   54   55 1    
   106   54  120 1    
   107   55   56 1    
   108   55   57 1    
   109   55  121 1    
   110   56  122 1    
   111   56  123 1    
   112   56  124 1    
   113   57   58 2    
   114   57   59 am   BACKBONE|DICT|INTERRES
   115   59   60 1    
   116   59  125 1    
   117   60   61 1    
   118   60   62 1    
   119   60  126 1    
   120   61  127 1    
   121   61  128 1    
   122   61  129 1    
   123   62   63 2    
   124   62   64 am   BACKBONE|DICT|INTERRES
   125   64   65 1    
   126   64  130 1    
   127   65   66 1    
   128   65   69 1    
   129   65  131 1    
   130   66   67 am   BACKBONE|DICT|INTERRES
   131   66   68 2    
   132   67  132 1    
   133   67  133 1    
   134   69   70 1    
   135   69  134 1    
   136   69  135 1    
   137   70   71 1    
   138   71  136 1    
   139   71  137 1    
@<TRIPOS>SUBSTRUCTURE
     1 UNK         1 GROUP             0       ****    0 ROOT    
