@<TRIPOS>MOLECULE
3R137
137   139    1
SMALL
USER_CHARGES


@<TRIPOS>ATOM
      1 CA         27.1764   -6.1038    2.7053 C.3       0 UNK        -0.2020 
      2 C          27.3669   -4.5986    2.5895 C.2       0 UNK         0.4855 
      3 O          27.9022   -3.9776    3.5085 O.2       0 UNK        -0.5197 
      4 N          26.9277   -4.0092    1.4728 N.am      1 UNK        -0.4892 
      5 CA         27.0160   -2.5724    1.1949 C.3       1 UNK         0.0835 
      6 C6         28.4490   -2.0768    0.8504 C.3       12 UNK        -0.0855 
      7 S7         29.2944   -3.0197   -0.4699 S.3       12 UNK        -0.2931 
      8 C8         29.2297   -1.8272   -1.8419 C.3       12 UNK         0.0378 
      9 C9         29.8069   -2.4092   -3.1237 C.ar      12 UNK        -0.0802 
     10 C10        30.9733   -1.8775   -3.6796 C.ar      12 UNK        -0.0944 
     11 C11        31.4821   -2.3762   -4.8838 C.ar      12 UNK        -0.0787 
     12 C12        30.8267   -3.4395   -5.5166 C.ar      12 UNK        -0.0862 
     13 C13        29.6735   -3.9996   -4.9556 C.ar      12 UNK        -0.0733 
     14 C14        29.1626   -3.4687   -3.7672 C.ar      12 UNK        -0.0832 
     15 C15        29.0098   -5.2135   -5.5969 C.3       12 UNK         0.0240 
     16 S16        28.0196   -4.8068   -7.0711 S.3       12 UNK        -0.2522 
     17 C17        26.6766   -3.7873   -6.3688 C.3       12 UNK        -0.0967 
     18 CA         26.4303   -2.4785   -7.1569 C.3       5 UNK         0.0660 
     19 N          25.2416   -1.7688   -6.6828 N.am      5 UNK        -0.4015 
     20 C          24.6168   -0.7973   -7.3646 C.2       4 UNK         0.4946 
     21 O          24.9331   -0.4440   -8.5006 O.2       4 UNK        -0.5353 
     22 CA         23.4696   -0.0691   -6.6426 C.3       4 UNK         0.0277 
     23 CB         22.1506   -0.8410   -6.8053 C.3       4 UNK        -0.1981 
     24 N          23.7427    0.1475   -5.2191 N.am      4 UNK        -0.4209 
     25 C          24.7171    0.9413   -4.7512 C.2       3 UNK         0.4942 
     26 O          25.4406    1.6280   -5.4708 O.2       3 UNK        -0.5208 
     27 CA         24.9592    0.9367   -3.2315 C.3       3 UNK         0.0250 
     28 CB         24.1167    2.0260   -2.5498 C.3       3 UNK        -0.1990 
     29 N          24.7082   -0.3554   -2.5818 N.am      3 UNK        -0.4232 
     30 C          25.3188   -1.5074   -2.8907 C.2       2 UNK         0.4993 
     31 O          26.1490   -1.6192   -3.7953 O.2       2 UNK        -0.5286 
     32 CA         24.9378   -2.7384   -2.0507 C.3       2 UNK         0.0209 
     33 CB         24.8772   -4.0147   -2.9094 C.3       2 UNK        -0.1931 
     34 N          25.8819   -2.9459   -0.9511 N.am      2 UNK        -0.4546 
     35 C          25.9686   -2.1732    0.1421 C.2       1 UNK         0.5154 
     36 O          25.2297   -1.2109    0.3556 O.2       1 UNK        -0.5181 
     37 C          27.6504   -1.5392   -7.1591 C.2       5 UNK         0.5014 
     38 O          28.3767   -1.5124   -8.1520 O.2       5 UNK        -0.5248 
     39 N          27.8173   -0.7437   -6.0909 N.am      6 UNK        -0.4434 
     40 CA         28.8671    0.2737   -5.9858 C.3       6 UNK         0.0363 
     41 CB         28.8183    0.9517   -4.6081 C.3       6 UNK        -0.1936 
     42 C          28.7978    1.3217   -7.1094 C.2       6 UNK         0.5081 
     43 O          29.8234    1.6281   -7.7175 O.2       6 UNK        -0.5248 
     44 N          27.5839    1.8132   -7.3961 N.am      7 UNK        -0.4718 
     45 CA         27.2930    2.7345   -8.4958 C.3       7 UNK         0.0273 
     46 CB         25.8411    3.2261   -8.3853 C.3       7 UNK        -0.1935 
     47 C          27.5561    2.1242   -9.8827 C.2       7 UNK         0.5018 
     48 O          28.1099    2.8119  -10.7407 O.2       7 UNK        -0.5186 
     49 N          27.1747    0.8524  -10.0756 N.am      8 UNK        -0.4240 
     50 CA         27.4190    0.0957  -11.3071 C.3       8 UNK         0.0235 
     51 CB         26.6036   -1.2073  -11.2921 C.3       8 UNK        -0.2000 
     52 C          28.9109   -0.1964  -11.5404 C.2       8 UNK         0.4941 
     53 O          29.3845   -0.0490  -12.6679 O.2       8 UNK        -0.5273 
     54 N          29.6236   -0.5928  -10.4765 N.am      9 UNK        -0.4262 
     55 CA         31.0667   -0.8414  -10.4829 C.3       9 UNK         0.0264 
     56 CB         31.4610   -1.5797   -9.1920 C.3       9 UNK        -0.1955 
     57 C          31.9006    0.4417  -10.6355 C.2       9 UNK         0.5031 
     58 O          32.9845    0.3824  -11.2178 O.2       9 UNK        -0.5390 
     59 N          31.3930    1.5589  -10.0913 N.am      10 UNK        -0.4204 
     60 CA         32.0348    2.8752   -9.9833 C.3       10 UNK         0.0237 
     61 CB         32.2680    3.5023  -11.3744 C.3       10 UNK        -0.1985 
     62 C          33.3033    2.8396   -9.1066 C.2       10 UNK         0.4970 
     63 O          34.2572    3.5762   -9.3656 O.2       10 UNK        -0.4914 
     64 N          33.2897    1.9676   -8.0920 N.am      11 UNK        -0.4285 
     65 CA         34.3650    1.7734   -7.1141 C.3       11 UNK         0.1007 
     66 C          34.4651    2.9258   -6.0745 C.2       11 UNK         0.5703 
     67 N          35.5954    3.0404   -5.3895 N.am      11 UNK        -0.7361 
     68 O          33.5350    3.7045   -5.8690 O.2       11 UNK        -0.4986 
     69 C69        34.2707    0.3705   -6.4539 C.3       12 UNK        -0.0947 
     70 S70        32.6492    0.0176   -5.6967 S.3       12 UNK        -0.2240 
     71 C71        32.7556   -1.7880   -5.4816 C.3       12 UNK         0.0194 
     72 H72        28.1398   -6.5932    2.8457 H         1 UNK         0.0906 
     73 H73        26.5472   -6.3377    3.5636 H         1 UNK         0.0906 
     74 H74        26.7090   -6.5268    1.8164 H         1 UNK         0.0906 
     75 H75        26.4476   -4.5601    0.7750 H         1 UNK         0.3140 
     76 H76        26.7125   -2.0545    2.1083 H         1 UNK         0.1085 
     77 H77        28.4370   -1.0135    0.6024 H         1 UNK         0.0836 
     78 H78        29.0729   -2.1504    1.7424 H         1 UNK         0.0836 
     79 H79        29.7680   -0.9231   -1.5529 H         1 UNK         0.0731 
     80 H80        28.1976   -1.5268   -2.0197 H         1 UNK         0.0731 
     81 H81        31.4804   -1.0606   -3.1848 H         1 UNK         0.1312 
     82 H82        31.2202   -3.8452   -6.4386 H         1 UNK         0.1406 
     83 H83        28.2690   -3.8877   -3.3270 H         1 UNK         0.1631 
     84 H84        28.3753   -5.7310   -4.8755 H         1 UNK         0.0717 
     85 H85        29.7808   -5.9295   -5.8847 H         1 UNK         0.0717 
     86 H86        25.7703   -4.3946   -6.3696 H         1 UNK         0.0934 
     87 H87        26.8844   -3.5669   -5.3238 H         1 UNK         0.0934 
     88 H88        26.2407   -2.7582   -8.1956 H         1 UNK         0.0739 
     89 H89        24.9777   -1.9347   -5.7219 H         1 UNK         0.3093 
     90 H90        23.3531    0.9092   -7.1141 H         1 UNK         0.0818 
     91 H91        21.3141   -0.2930   -6.3710 H         1 UNK         0.0819 
     92 H92        21.9195   -0.9973   -7.8601 H         1 UNK         0.0819 
     93 H93        22.1918   -1.8229   -6.3322 H         1 UNK         0.0819 
     94 H94        23.1817   -0.3671   -4.5560 H         1 UNK         0.3041 
     95 H95        26.0125    1.1745   -3.0720 H         1 UNK         0.0784 
     96 H96        24.3046    3.0026   -2.9988 H         1 UNK         0.0793 
     97 H97        23.0480    1.8263   -2.6386 H         1 UNK         0.0793 
     98 H98        24.3569    2.1081   -1.4895 H         1 UNK         0.0793 
     99 H99        24.0855   -0.3440   -1.7854 H         1 UNK         0.3024 
    100 H100       23.9426   -2.5742   -1.6307 H         1 UNK         0.1171 
    101 H101       24.4879   -4.8564   -2.3363 H         1 UNK         0.0786 
    102 H102       24.2195   -3.8794   -3.7690 H         1 UNK         0.0786 
    103 H103       25.8581   -4.2987   -3.2894 H         1 UNK         0.0786 
    104 H104       26.5772   -3.6658   -1.0839 H         1 UNK         0.2977 
    105 H105       27.2008   -0.8649   -5.2924 H         1 UNK         0.3127 
    106 H106       29.8173   -0.2519   -6.0784 H         1 UNK         0.0770 
    107 H107       27.9385    1.5843   -4.4965 H         1 UNK         0.0814 
    108 H108       29.6943    1.5850   -4.4625 H         1 UNK         0.0814 
    109 H109       28.8079    0.2209   -3.8021 H         1 UNK         0.0814 
    110 H110       26.8012    1.5514   -6.8006 H         1 UNK         0.2983 
    111 H111       27.9546    3.5965   -8.3861 H         1 UNK         0.0947 
    112 H112       25.6041    3.9300   -9.1842 H         1 UNK         0.0806 
    113 H113       25.6678    3.7385   -7.4388 H         1 UNK         0.0806 
    114 H114       25.1301    2.4018   -8.4526 H         1 UNK         0.0806 
    115 H115       26.6792    0.3708   -9.3321 H         1 UNK         0.3000 
    116 H116       27.0676    0.7027  -12.1443 H         1 UNK         0.0850 
    117 H117       26.7541   -1.7728  -12.2125 H         1 UNK         0.0810 
    118 H118       25.5358   -1.0051  -11.2063 H         1 UNK         0.0810 
    119 H119       26.8885   -1.8533  -10.4614 H         1 UNK         0.0810 
    120 H120       29.1362   -0.7659   -9.5964 H         1 UNK         0.3040 
    121 H121       31.2951   -1.4889  -11.3320 H         1 UNK         0.0766 
    122 H122       31.2133   -0.9970   -8.3037 H         1 UNK         0.0812 
    123 H123       32.5329   -1.7802   -9.1641 H         1 UNK         0.0812 
    124 H124       30.9477   -2.5381   -9.1109 H         1 UNK         0.0812 
    125 H125       30.5352    1.4669   -9.5531 H         1 UNK         0.3205 
    126 H126       31.3227    3.5096   -9.4534 H         1 UNK         0.0754 
    127 H127       32.6051    4.5357  -11.2854 H         1 UNK         0.0769 
    128 H128       31.3495    3.5109  -11.9616 H         1 UNK         0.0769 
    129 H129       33.0254    2.9617  -11.9427 H         1 UNK         0.0769 
    130 H130       32.4388    1.4542   -7.9094 H         1 UNK         0.2981 
    131 H131       35.3017    1.7957   -7.6748 H         1 UNK         0.0541 
    132 H132       36.3658    2.4085   -5.5426 H         1 UNK         0.3459 
    133 H133       35.6799    3.7762   -4.7057 H         1 UNK         0.3459 
    134 H134       35.0484    0.2370   -5.7001 H         1 UNK         0.0612 
    135 H135       34.4607   -0.3899   -7.2131 H         1 UNK         0.0612 
    136 H136       32.9713   -2.2449   -6.4486 H         1 UNK         0.0624 
    137 H137       33.5965   -2.0220   -4.8277 H         1 UNK         0.0624 
@<TRIPOS>BOND
     1    1    2 1    
     2    1   72 1    
     3    1   73 1    
     4    1   74 1    
     5    2    3 2    
     6    2    4 am   BACKBONE|DICT|INTERRES
     7    4    5 1    
     8    4   75 1    
     9    5    6 1    
    10    5   35 1    
    11    5   76 1    
    12    6    7 1    
    13    6   77 1    
    14    6   78 1    
    15    7    8 1    
    16    8    9 1    
    17    8   79 1    
    18    8   80 1    
    19    9   10 ar   
    20    9   14 ar   
    21   10   11 ar   
    22   10   81 1    
    23   11   12 ar   
    24   11   71 1    
    25   12   13 ar   
    26   12   82 1    
    27   13   14 ar   
    28   13   15 1    
    29   14   83 1    
    30   15   16 1    
    31   15   84 1    
    32   15   85 1    
    33   16   17 1    
    34   17   18 1    
    35   17   86 1    
    36   17   87 1    
    37   18   19 1    
    38   18   37 1    
    39   18   88 1    
    40   19   20 am   BACKBONE|DICT|INTERRES
    41   19   89 1    
    42   20   21 2    
    43   20   22 1    
    44   22   23 1    
    45   22   24 1    
    46   22   90 1    
    47   23   91 1    
    48   23   92 1    
    49   23   93 1    
    50   24   25 am   BACKBONE|DICT|INTERRES
    51   24   94 1    
    52   25   26 2    
    53   25   27 1    
    54   27   28 1    
    55   27   29 1    
    56   27   95 1    
    57   28   96 1    
    58   28   97 1    
    59   28   98 1    
    60   29   30 am   BACKBONE|DICT|INTERRES
    61   29   99 1    
    62   30   31 2    
    63   30   32 1    
    64   32   33 1    
    65   32   34 1    
    66   32  100 1    
    67   33  101 1    
    68   33  102 1    
    69   33  103 1    
    70   34   35 am   BACKBONE|DICT|INTERRES
    71   34  104 1    
    72   35   36 2    
    73   37   38 2    
    74   37   39 am   BACKBONE|DICT|INTERRES
    75   39   40 1    
    76   39  105 1    
    77   40   41 1    
    78   40   42 1    
    79   40  106 1    
    80   41  107 1    
    81   41  108 1    
    82   41  109 1    
    83   42   43 2    
    84   42   44 am   BACKBONE|DICT|INTERRES
    85   44   45 1    
    86   44  110 1    
    87   45   46 1    
    88   45   47 1    
    89   45  111 1    
    90   46  112 1    
    91   46  113 1    
    92   46  114 1    
    93   47   48 2    
    94   47   49 am   BACKBONE|DICT|INTERRES
    95   49   50 1    
    96   49  115 1    
    97   50   51 1    
    98   50   52 1    
    99   50  116 1    
   100   51  117 1    
   101   51  118 1    
   102   51  119 1    
   103   52   53 2    
   104   52   54 am   BACKBONE|DICT|INTERRES
   105   54   55 1    
   106   54  120 1    
   107   55   56 1    
   108   55   57 1    
   109   55  121 1    
   110   56  122 1    
   111   56  123 1    
   112   56  124 1    
   113   57   58 2    
   114   57   59 am   BACKBONE|DICT|INTERRES
   115   59   60 1    
   116   59  125 1    
   117   60   61 1    
   118   60   62 1    
   119   60  126 1    
   120   61  127 1    
   121   61  128 1    
   122   61  129 1    
   123   62   63 2    
   124   62   64 am   BACKBONE|DICT|INTERRES
   125   64   65 1    
   126   64  130 1    
   127   65   66 1    
   128   65   69 1    
   129   65  131 1    
   130   66   67 am   BACKBONE|DICT|INTERRES
   131   66   68 2    
   132   67  132 1    
   133   67  133 1    
   134   69   70 1    
   135   69  134 1    
   136   69  135 1    
   137   70   71 1    
   138   71  136 1    
   139   71  137 1    
@<TRIPOS>SUBSTRUCTURE
     1 UNK         1 GROUP             0       ****    0 ROOT    
