@<TRIPOS>MOLECULE
3R137
137   139    1
SMALL
USER_CHARGES


@<TRIPOS>ATOM
      1 CA         28.6071   -6.6077   -0.6173 C.3       0 UNK        -0.2020 
      2 C          27.7700   -5.4795   -0.0336 C.2       0 UNK         0.4855 
      3 O          26.8489   -5.7370    0.7416 O.2       0 UNK        -0.5197 
      4 N          28.0836   -4.2302   -0.4012 N.am      1 UNK        -0.4892 
      5 CA         27.3969   -3.0151    0.0650 C.3       1 UNK         0.0835 
      6 C6         28.1950   -1.7236   -0.2524 C.3       12 UNK        -0.0855 
      7 S7         29.9241   -1.7824    0.3276 S.3       12 UNK        -0.2931 
      8 C8         30.6987   -0.5156   -0.7406 C.3       12 UNK         0.0378 
      9 C9         30.8154   -0.8541   -2.2310 C.ar      12 UNK        -0.0802 
     10 C10        31.2530    0.1504   -3.0996 C.ar      12 UNK        -0.0944 
     11 C11        31.4073   -0.1004   -4.4648 C.ar      12 UNK        -0.0787 
     12 C12        31.0937   -1.3637   -4.9732 C.ar      12 UNK        -0.0862 
     13 C13        30.6440   -2.3800   -4.1261 C.ar      12 UNK        -0.0733 
     14 C14        30.5270   -2.1217   -2.7571 C.ar      12 UNK        -0.0832 
     15 C15        30.3256   -3.7744   -4.6615 C.3       12 UNK         0.0240 
     16 S16        29.3903   -3.7857   -6.2291 S.3       12 UNK        -0.2522 
     17 C17        27.8107   -3.0101   -5.7582 C.3       12 UNK        -0.0967 
     18 CA         27.3205   -1.9696   -6.8010 C.3       5 UNK         0.0660 
     19 N          25.8615   -1.8224   -6.7569 N.am      5 UNK        -0.4015 
     20 C          25.1229   -1.1729   -7.6690 C.2       4 UNK         0.4946 
     21 O          25.5889   -0.6321   -8.6701 O.2       4 UNK        -0.5353 
     22 CA         23.6087   -1.0827   -7.4107 C.3       4 UNK         0.0277 
     23 CB         22.8929   -2.3223   -7.9703 C.3       4 UNK        -0.1981 
     24 N          23.2697   -0.9177   -5.9953 N.am      4 UNK        -0.4209 
     25 C          23.6067    0.1459   -5.2516 C.2       3 UNK         0.4942 
     26 O          24.2144    1.1217   -5.6860 O.2       3 UNK        -0.5208 
     27 CA         23.2599    0.0880   -3.7560 C.3       3 UNK         0.0250 
     28 CB         21.8348    0.6088   -3.5112 C.3       3 UNK        -0.1990 
     29 N          23.4077   -1.2473   -3.1668 N.am      3 UNK        -0.4232 
     30 C          24.5456   -1.9547   -3.1565 C.2       2 UNK         0.4993 
     31 O          25.5901   -1.5925   -3.7077 O.2       2 UNK        -0.5286 
     32 CA         24.5013   -3.3180   -2.4523 C.3       2 UNK         0.0209 
     33 CB         24.3821   -4.4533   -3.4819 C.3       2 UNK        -0.1931 
     34 N          25.7151   -3.5077   -1.6623 N.am      2 UNK        -0.4546 
     35 C          25.9702   -2.8786   -0.5063 C.2       1 UNK         0.5154 
     36 O          25.1415   -2.1897    0.0916 O.2       1 UNK        -0.5181 
     37 C          28.0158   -0.6037   -6.6360 C.2       5 UNK         0.5014 
     38 O          28.9249   -0.2717   -7.4045 O.2       5 UNK        -0.5248 
     39 N          27.5267    0.1745   -5.6591 N.am      6 UNK        -0.4434 
     40 CA         27.9554    1.5437   -5.3898 C.3       6 UNK         0.0363 
     41 CB         27.3792    2.0098   -4.0438 C.3       6 UNK        -0.1936 
     42 C          27.5843    2.5119   -6.5251 C.2       6 UNK         0.5081 
     43 O          28.4438    3.2757   -6.9621 O.2       6 UNK        -0.5248 
     44 N          26.3328    2.4486   -7.0047 N.am      7 UNK        -0.4718 
     45 CA         25.8062    3.2877   -8.0883 C.3       7 UNK         0.0273 
     46 CB         24.2902    3.0776   -8.2238 C.3       7 UNK        -0.1935 
     47 C          26.5013    3.0574   -9.4393 C.2       7 UNK         0.5018 
     48 O          26.7397    4.0239  -10.1644 O.2       7 UNK        -0.5186 
     49 N          26.8428    1.7968   -9.7423 N.am      8 UNK        -0.4240 
     50 CA         27.6393    1.4182  -10.9131 C.3       8 UNK         0.0235 
     51 CB         27.5093   -0.0965  -11.1451 C.3       8 UNK        -0.2000 
     52 C          29.1251    1.8038  -10.7937 C.2       8 UNK         0.4941 
     53 O          29.8217    1.7877  -11.8094 O.2       8 UNK        -0.5273 
     54 N          29.5866    2.1084   -9.5691 N.am      9 UNK        -0.4262 
     55 CA         30.9743    2.3774   -9.1784 C.3       9 UNK         0.0264 
     56 CB         31.4747    3.7031   -9.7887 C.3       9 UNK        -0.1955 
     57 C          31.9017    1.1850   -9.4780 C.2       9 UNK         0.5031 
     58 O          33.0446    1.3780   -9.8985 O.2       9 UNK        -0.5390 
     59 N          31.3932   -0.0361   -9.2488 N.am      10 UNK        -0.4204 
     60 CA         32.0598   -1.3003   -9.5862 C.3       10 UNK         0.0237 
     61 CB         31.0639   -2.4524   -9.3960 C.3       10 UNK        -0.1985 
     62 C          33.3623   -1.5624   -8.8065 C.2       10 UNK         0.4970 
     63 O          34.1814   -2.3674   -9.2508 O.2       10 UNK        -0.4914 
     64 N          33.5349   -0.8656   -7.6788 N.am      11 UNK        -0.4285 
     65 CA         34.7682   -0.8010   -6.8903 C.3       11 UNK         0.1007 
     66 C          35.9100    0.0410   -7.5356 C.2       11 UNK         0.5703 
     67 N          35.6682    0.8054   -8.5959 N.am      11 UNK        -0.7361 
     68 O          37.0462   -0.0151   -7.0710 O.2       11 UNK        -0.4986 
     69 C69        34.4678   -0.3774   -5.4283 C.3       12 UNK        -0.0947 
     70 S70        33.7117    1.2824   -5.2439 S.3       12 UNK        -0.2240 
     71 C71        31.9151    0.9915   -5.3929 C.3       12 UNK         0.0194 
     72 H72        29.3849   -6.2377   -1.2851 H         1 UNK         0.0906 
     73 H73        29.0874   -7.1703    0.1828 H         1 UNK         0.0906 
     74 H74        27.9734   -7.2916   -1.1814 H         1 UNK         0.0906 
     75 H75        28.8785   -4.0768   -1.0019 H         1 UNK         0.3140 
     76 H76        27.2966   -3.0909    1.1502 H         1 UNK         0.1085 
     77 H77        28.1824   -1.5239   -1.3259 H         1 UNK         0.0836 
     78 H78        27.7178   -0.8601    0.2159 H         1 UNK         0.0836 
     79 H79        30.1416    0.4158   -0.6270 H         1 UNK         0.0731 
     80 H80        31.7013   -0.3215   -0.3570 H         1 UNK         0.0731 
     81 H81        31.4943    1.1303   -2.7101 H         1 UNK         0.1312 
     82 H82        31.2055   -1.5602   -6.0300 H         1 UNK         0.1406 
     83 H83        30.2169   -2.9217   -2.1043 H         1 UNK         0.1631 
     84 H84        29.7640   -4.3521   -3.9258 H         1 UNK         0.0717 
     85 H85        31.2657   -4.3051   -4.8167 H         1 UNK         0.0717 
     86 H86        27.0887   -3.8234   -5.6748 H         1 UNK         0.0934 
     87 H87        27.8790   -2.5755   -4.7588 H         1 UNK         0.0934 
     88 H88        27.5641   -2.3385   -7.8001 H         1 UNK         0.0739 
     89 H89        25.4062   -2.1582   -5.9196 H         1 UNK         0.3093 
     90 H90        23.2365   -0.2062   -7.9447 H         1 UNK         0.0818 
     91 H91        21.8105   -2.2311   -7.8785 H         1 UNK         0.0819 
     92 H92        23.1154   -2.4543   -9.0303 H         1 UNK         0.0819 
     93 H93        23.1988   -3.2351   -7.4573 H         1 UNK         0.0819 
     94 H94        22.7638   -1.6707   -5.5523 H         1 UNK         0.3041 
     95 H95        23.9578    0.7494   -3.2379 H         1 UNK         0.0784 
     96 H96        21.7090    1.6095   -3.9274 H         1 UNK         0.0793 
     97 H97        21.0831   -0.0328   -3.9727 H         1 UNK         0.0793 
     98 H98        21.6133    0.6743   -2.4457 H         1 UNK         0.0793 
     99 H99        22.5948   -1.6238   -2.6997 H         1 UNK         0.3024 
    100 H100       23.6383   -3.3553   -1.7832 H         1 UNK         0.1171 
    101 H101       23.4752   -4.3476   -4.0788 H         1 UNK         0.0786 
    102 H102       24.3338   -5.4264   -2.9926 H         1 UNK         0.0786 
    103 H103       25.2271   -4.4679   -4.1708 H         1 UNK         0.0786 
    104 H104       26.4638   -4.0302   -2.0914 H         1 UNK         0.2977 
    105 H105       26.7831   -0.1949   -5.0783 H         1 UNK         0.3127 
    106 H106       29.0425    1.5370   -5.3047 H         1 UNK         0.0770 
    107 H107       26.2887    2.0076   -4.0461 H         1 UNK         0.0814 
    108 H108       27.7040    3.0250   -3.8122 H         1 UNK         0.0814 
    109 H109       27.7141    1.3681   -3.2283 H         1 UNK         0.0814 
    110 H110       25.6649    1.8239   -6.5550 H         1 UNK         0.2983 
    111 H111       25.9800    4.3288   -7.8078 H         1 UNK         0.0947 
    112 H112       23.8760    3.7075   -9.0122 H         1 UNK         0.0806 
    113 H113       23.7703    3.3322   -7.3001 H         1 UNK         0.0806 
    114 H114       24.0489    2.0434   -8.4704 H         1 UNK         0.0806 
    115 H115       26.5446    1.0408   -9.1308 H         1 UNK         0.3000 
    116 H116       27.2359    1.9354  -11.7863 H         1 UNK         0.0850 
    117 H117       28.0726   -0.4103  -12.0250 H         1 UNK         0.0810 
    118 H118       26.4706   -0.3850  -11.3068 H         1 UNK         0.0810 
    119 H119       27.8866   -0.6666  -10.2947 H         1 UNK         0.0810 
    120 H120       28.9217    2.1126   -8.8046 H         1 UNK         0.3040 
    121 H121       30.9669    2.4972   -8.0942 H         1 UNK         0.0766 
    122 H122       30.8004    4.5262   -9.5521 H         1 UNK         0.0812 
    123 H123       31.5640    3.6424  -10.8737 H         1 UNK         0.0812 
    124 H124       32.4577    3.9665   -9.3964 H         1 UNK         0.0812 
    125 H125       30.4615   -0.1031   -8.8482 H         1 UNK         0.3205 
    126 H126       32.3285   -1.2557  -10.6436 H         1 UNK         0.0754 
    127 H127       31.5189   -3.4144   -9.6359 H         1 UNK         0.0769 
    128 H128       30.1919   -2.3354  -10.0398 H         1 UNK         0.0769 
    129 H129       30.7142   -2.5013   -8.3668 H         1 UNK         0.0769 
    130 H130       32.8196   -0.2085   -7.4145 H         1 UNK         0.2981 
    131 H131       35.1613   -1.8182   -6.8418 H         1 UNK         0.0541 
    132 H132       36.4249    1.3346   -8.9982 H         1 UNK         0.3459 
    133 H133       34.7378    0.8810   -8.9944 H         1 UNK         0.3459 
    134 H134       35.3905   -0.3818   -4.8455 H         1 UNK         0.0612 
    135 H135       33.8386   -1.1264   -4.9494 H         1 UNK         0.0612 
    136 H136       31.6606    0.7603   -6.4259 H         1 UNK         0.0624 
    137 H137       31.4009    1.9260   -5.1645 H         1 UNK         0.0624 
@<TRIPOS>BOND
     1    1    2 1    
     2    1   72 1    
     3    1   73 1    
     4    1   74 1    
     5    2    3 2    
     6    2    4 am   BACKBONE|DICT|INTERRES
     7    4    5 1    
     8    4   75 1    
     9    5    6 1    
    10    5   35 1    
    11    5   76 1    
    12    6    7 1    
    13    6   77 1    
    14    6   78 1    
    15    7    8 1    
    16    8    9 1    
    17    8   79 1    
    18    8   80 1    
    19    9   10 ar   
    20    9   14 ar   
    21   10   11 ar   
    22   10   81 1    
    23   11   12 ar   
    24   11   71 1    
    25   12   13 ar   
    26   12   82 1    
    27   13   14 ar   
    28   13   15 1    
    29   14   83 1    
    30   15   16 1    
    31   15   84 1    
    32   15   85 1    
    33   16   17 1    
    34   17   18 1    
    35   17   86 1    
    36   17   87 1    
    37   18   19 1    
    38   18   37 1    
    39   18   88 1    
    40   19   20 am   BACKBONE|DICT|INTERRES
    41   19   89 1    
    42   20   21 2    
    43   20   22 1    
    44   22   23 1    
    45   22   24 1    
    46   22   90 1    
    47   23   91 1    
    48   23   92 1    
    49   23   93 1    
    50   24   25 am   BACKBONE|DICT|INTERRES
    51   24   94 1    
    52   25   26 2    
    53   25   27 1    
    54   27   28 1    
    55   27   29 1    
    56   27   95 1    
    57   28   96 1    
    58   28   97 1    
    59   28   98 1    
    60   29   30 am   BACKBONE|DICT|INTERRES
    61   29   99 1    
    62   30   31 2    
    63   30   32 1    
    64   32   33 1    
    65   32   34 1    
    66   32  100 1    
    67   33  101 1    
    68   33  102 1    
    69   33  103 1    
    70   34   35 am   BACKBONE|DICT|INTERRES
    71   34  104 1    
    72   35   36 2    
    73   37   38 2    
    74   37   39 am   BACKBONE|DICT|INTERRES
    75   39   40 1    
    76   39  105 1    
    77   40   41 1    
    78   40   42 1    
    79   40  106 1    
    80   41  107 1    
    81   41  108 1    
    82   41  109 1    
    83   42   43 2    
    84   42   44 am   BACKBONE|DICT|INTERRES
    85   44   45 1    
    86   44  110 1    
    87   45   46 1    
    88   45   47 1    
    89   45  111 1    
    90   46  112 1    
    91   46  113 1    
    92   46  114 1    
    93   47   48 2    
    94   47   49 am   BACKBONE|DICT|INTERRES
    95   49   50 1    
    96   49  115 1    
    97   50   51 1    
    98   50   52 1    
    99   50  116 1    
   100   51  117 1    
   101   51  118 1    
   102   51  119 1    
   103   52   53 2    
   104   52   54 am   BACKBONE|DICT|INTERRES
   105   54   55 1    
   106   54  120 1    
   107   55   56 1    
   108   55   57 1    
   109   55  121 1    
   110   56  122 1    
   111   56  123 1    
   112   56  124 1    
   113   57   58 2    
   114   57   59 am   BACKBONE|DICT|INTERRES
   115   59   60 1    
   116   59  125 1    
   117   60   61 1    
   118   60   62 1    
   119   60  126 1    
   120   61  127 1    
   121   61  128 1    
   122   61  129 1    
   123   62   63 2    
   124   62   64 am   BACKBONE|DICT|INTERRES
   125   64   65 1    
   126   64  130 1    
   127   65   66 1    
   128   65   69 1    
   129   65  131 1    
   130   66   67 am   BACKBONE|DICT|INTERRES
   131   66   68 2    
   132   67  132 1    
   133   67  133 1    
   134   69   70 1    
   135   69  134 1    
   136   69  135 1    
   137   70   71 1    
   138   71  136 1    
   139   71  137 1    
@<TRIPOS>SUBSTRUCTURE
     1 UNK         1 GROUP             0       ****    0 ROOT    
