@<TRIPOS>MOLECULE
3R137
137   139    1
SMALL
USER_CHARGES


@<TRIPOS>ATOM
      1 CA         24.4074   -6.4028   -4.5157 C.3       0 UNK        -0.2020 
      2 C          25.0960   -5.2267   -3.8426 C.2       0 UNK         0.4855 
      3 O          24.9119   -4.0879   -4.2766 O.2       0 UNK        -0.5197 
      4 N          25.8692   -5.4913   -2.7781 N.am      1 UNK        -0.4892 
      5 CA         26.6975   -4.5695   -1.9752 C.3       1 UNK         0.0835 
      6 C6         27.7907   -3.8386   -2.7966 C.3       12 UNK        -0.0855 
      7 S7         29.0066   -4.9384   -3.6014 S.3       12 UNK        -0.2931 
      8 C8         30.5320   -4.6297   -2.6437 C.3       12 UNK         0.0378 
      9 C9         31.0232   -3.1906   -2.7646 C.ar      12 UNK        -0.0802 
     10 C10        31.8146   -2.7901   -3.8474 C.ar      12 UNK        -0.0944 
     11 C11        32.2580   -1.4659   -3.9481 C.ar      12 UNK        -0.0787 
     12 C12        31.8767   -0.5342   -2.9776 C.ar      12 UNK        -0.0862 
     13 C13        31.0757   -0.9211   -1.9008 C.ar      12 UNK        -0.0733 
     14 C14        30.6884   -2.2564   -1.7801 C.ar      12 UNK        -0.0832 
     15 C15        30.6114    0.0978   -0.8703 C.3       12 UNK         0.0240 
     16 S16        29.4741    1.3389   -1.5734 S.3       12 UNK        -0.2522 
     17 C17        28.1724    0.3383   -2.3847 C.3       12 UNK        -0.0967 
     18 CA         28.1759    0.5174   -3.9271 C.3       5 UNK         0.0660 
     19 N          27.3882   -0.5060   -4.6218 N.am      5 UNK        -0.4015 
     20 C          27.4639   -0.7475   -5.9411 C.2       4 UNK         0.4946 
     21 O          28.2718   -0.2045   -6.6928 O.2       4 UNK        -0.5353 
     22 CA         26.4323   -1.7095   -6.5534 C.3       4 UNK         0.0277 
     23 CB         26.9963   -3.1340   -6.6838 C.3       4 UNK        -0.1981 
     24 N          25.1573   -1.7258   -5.8312 N.am      4 UNK        -0.4209 
     25 C          24.2969   -0.6961   -5.8294 C.2       3 UNK         0.4942 
     26 O          24.4925    0.3542   -6.4390 O.2       3 UNK        -0.5208 
     27 CA         23.0292   -0.8339   -4.9722 C.3       3 UNK         0.0250 
     28 CB         21.9777   -1.6891   -5.6966 C.3       3 UNK        -0.1990 
     29 N          23.2832   -1.3915   -3.6426 N.am      3 UNK        -0.4232 
     30 C          24.0819   -0.8470   -2.7128 C.2       2 UNK         0.4993 
     31 O          24.7262    0.1899   -2.8770 O.2       2 UNK        -0.5286 
     32 CA         24.2648   -1.6578   -1.4274 C.3       2 UNK         0.0209 
     33 CB         22.9369   -1.9315   -0.6985 C.3       2 UNK        -0.1931 
     34 N          24.9100   -2.9056   -1.8112 N.am      2 UNK        -0.4546 
     35 C          25.9057   -3.5145   -1.1692 C.2       1 UNK         0.5154 
     36 O          26.2536   -3.2333   -0.0219 O.2       1 UNK        -0.5181 
     37 C          27.6984    1.9239   -4.3415 C.2       5 UNK         0.5014 
     38 O          28.5208    2.7502   -4.7377 O.2       5 UNK        -0.5248 
     39 N          26.3771    2.1551   -4.2776 N.am      6 UNK        -0.4434 
     40 CA         25.7268    3.4146   -4.6522 C.3       6 UNK         0.0363 
     41 CB         24.2282    3.3361   -4.3196 C.3       6 UNK        -0.1936 
     42 C          25.9391    3.7990   -6.1273 C.2       6 UNK         0.5081 
     43 O          26.2013    4.9665   -6.4175 O.2       6 UNK        -0.5248 
     44 N          25.8462    2.8114   -7.0272 N.am      7 UNK        -0.4718 
     45 CA         26.1048    2.9677   -8.4608 C.3       7 UNK         0.0273 
     46 CB         25.4434    1.8006   -9.2127 C.3       7 UNK        -0.1935 
     47 C          27.6015    3.0394   -8.8166 C.2       7 UNK         0.5018 
     48 O          27.9223    3.4647   -9.9271 O.2       7 UNK        -0.5186 
     49 N          28.4755    2.5932   -7.8997 N.am      8 UNK        -0.4240 
     50 CA         29.9190    2.3752   -8.0684 C.3       8 UNK         0.0235 
     51 CB         30.6646    3.7165   -8.2311 C.3       8 UNK        -0.2000 
     52 C          30.2218    1.3688   -9.1986 C.2       8 UNK         0.4941 
     53 O          31.1276    1.5911  -10.0057 O.2       8 UNK        -0.5273 
     54 N          29.4254    0.2925   -9.2540 N.am      9 UNK        -0.4262 
     55 CA         29.4051   -0.7036  -10.3242 C.3       9 UNK         0.0264 
     56 CB         28.1515   -1.5817  -10.1763 C.3       9 UNK        -0.1955 
     57 C          30.6939   -1.5392  -10.3376 C.2       9 UNK         0.5031 
     58 O          30.8336   -2.4611   -9.5320 O.2       9 UNK        -0.5390 
     59 N          31.6147   -1.1680  -11.2390 N.am      10 UNK        -0.4204 
     60 CA         32.9676   -1.7132  -11.4139 C.3       10 UNK         0.0237 
     61 CB         32.9202   -3.1942  -11.8493 C.3       10 UNK        -0.1985 
     62 C          33.8965   -1.4765  -10.2037 C.2       10 UNK         0.4970 
     63 O          34.8950   -2.1850  -10.0608 O.2       10 UNK        -0.4914 
     64 N          33.5719   -0.4827   -9.3665 N.am      11 UNK        -0.4285 
     65 CA         34.3909   -0.0560   -8.2256 C.3       11 UNK         0.1007 
     66 C          35.6506    0.7328   -8.6763 C.2       11 UNK         0.5703 
     67 N          36.7281    0.6703   -7.9058 N.am      11 UNK        -0.7361 
     68 O          35.6515    1.4260   -9.6926 O.2       11 UNK        -0.4986 
     69 C69        33.5611    0.7610   -7.2036 C.3       12 UNK        -0.0947 
     70 S70        32.2358   -0.2173   -6.4190 S.3       12 UNK        -0.2240 
     71 C71        33.1672   -1.0320   -5.0864 C.3       12 UNK         0.0194 
     72 H72        24.6493   -7.3499   -4.0340 H         1 UNK         0.0906 
     73 H73        23.3263   -6.2709   -4.4849 H         1 UNK         0.0906 
     74 H74        24.7135   -6.4646   -5.5596 H         1 UNK         0.0906 
     75 H75        25.9332   -6.4546   -2.4777 H         1 UNK         0.3140 
     76 H76        27.2027   -5.1938   -1.2359 H         1 UNK         0.1085 
     77 H77        27.3383   -3.2135   -3.5640 H         1 UNK         0.0836 
     78 H78        28.3153   -3.1419   -2.1513 H         1 UNK         0.0836 
     79 H79        31.3096   -5.3095   -2.9953 H         1 UNK         0.0731 
     80 H80        30.3569   -4.8878   -1.5980 H         1 UNK         0.0731 
     81 H81        32.0896   -3.5099   -4.6064 H         1 UNK         0.1312 
     82 H82        32.1936    0.4962   -3.0663 H         1 UNK         0.1406 
     83 H83        30.0942   -2.5624   -0.9298 H         1 UNK         0.1631 
     84 H84        31.4804    0.6101   -0.4554 H         1 UNK         0.0717 
     85 H85        30.1166   -0.3932   -0.0309 H         1 UNK         0.0717 
     86 H86        28.3161   -0.7106   -2.1286 H         1 UNK         0.0934 
     87 H87        27.2072    0.6121   -1.9552 H         1 UNK         0.0934 
     88 H88        29.2076    0.4056   -4.2707 H         1 UNK         0.0739 
     89 H89        26.6472   -0.9441   -4.0967 H         1 UNK         0.3093 
     90 H90        26.2323   -1.3478   -7.5644 H         1 UNK         0.0818 
     91 H91        27.1112   -3.6250   -5.7211 H         1 UNK         0.0819 
     92 H92        26.3465   -3.7590   -7.2962 H         1 UNK         0.0819 
     93 H93        27.9806   -3.1291   -7.1534 H         1 UNK         0.0819 
     94 H94        24.9379   -2.5681   -5.3009 H         1 UNK         0.3041 
     95 H95        22.6176    0.1680   -4.8335 H         1 UNK         0.0784 
     96 H96        21.7642   -1.2873   -6.6883 H         1 UNK         0.0793 
     97 H97        22.3132   -2.7190   -5.8268 H         1 UNK         0.0793 
     98 H98        21.0358   -1.7091   -5.1480 H         1 UNK         0.0793 
     99 H99        22.8185   -2.2619   -3.4282 H         1 UNK         0.3024 
    100 H100       24.9200   -1.0852   -0.7661 H         1 UNK         0.1171 
    101 H101       22.4156   -0.9998   -0.4746 H         1 UNK         0.0786 
    102 H102       23.1118   -2.4400    0.2498 H         1 UNK         0.0786 
    103 H103       22.2621   -2.5545   -1.2860 H         1 UNK         0.0786 
    104 H104       24.7466   -3.2254   -2.7660 H         1 UNK         0.2977 
    105 H105       25.7695    1.4260   -3.9102 H         1 UNK         0.3127 
    106 H106       26.1700    4.2033   -4.0407 H         1 UNK         0.0770 
    107 H107       23.7308    2.5459   -4.8830 H         1 UNK         0.0814 
    108 H108       23.7255    4.2741   -4.5586 H         1 UNK         0.0814 
    109 H109       24.0667    3.1415   -3.2592 H         1 UNK         0.0814 
    110 H110       25.5402    1.8912   -6.7155 H         1 UNK         0.2983 
    111 H111       25.6437    3.8987   -8.7983 H         1 UNK         0.0947 
    112 H112       25.5811    1.8983  -10.2904 H         1 UNK         0.0806 
    113 H113       24.3701    1.7646   -9.0246 H         1 UNK         0.0806 
    114 H114       25.8668    0.8407   -8.9147 H         1 UNK         0.0806 
    115 H115       28.0987    2.2702   -7.0174 H         1 UNK         0.3000 
    116 H116       30.2633    1.9136   -7.1421 H         1 UNK         0.0850 
    117 H117       31.7442    3.5657   -8.2428 H         1 UNK         0.0810 
    118 H118       30.4411    4.3940   -7.4071 H         1 UNK         0.0810 
    119 H119       30.3984    4.2184   -9.1616 H         1 UNK         0.0810 
    120 H120       28.8138    0.1261   -8.4572 H         1 UNK         0.3040 
    121 H121       29.3218   -0.1709  -11.2740 H         1 UNK         0.0766 
    122 H122       27.2398   -0.9865  -10.2275 H         1 UNK         0.0812 
    123 H123       28.1487   -2.1194   -9.2295 H         1 UNK         0.0812 
    124 H124       28.1005   -2.3251  -10.9727 H         1 UNK         0.0812 
    125 H125       31.4039   -0.3566  -11.8057 H         1 UNK         0.3205 
    126 H126       33.4104   -1.1481  -12.2354 H         1 UNK         0.0754 
    127 H127       33.9102   -3.5507  -12.1364 H         1 UNK         0.0769 
    128 H128       32.2662   -3.3344  -12.7100 H         1 UNK         0.0769 
    129 H129       32.5637   -3.8415  -11.0475 H         1 UNK         0.0769 
    130 H130       32.7577    0.0828   -9.5688 H         1 UNK         0.2981 
    131 H131       34.7427   -0.9583   -7.7212 H         1 UNK         0.0541 
    132 H132       37.5516    1.1860   -8.1743 H         1 UNK         0.3459 
    133 H133       36.7389    0.1136   -7.0654 H         1 UNK         0.3459 
    134 H134       34.1989    1.1714   -6.4187 H         1 UNK         0.0612 
    135 H135       33.1039    1.6218   -7.6931 H         1 UNK         0.0612 
    136 H136       33.9263   -0.3545   -4.6931 H         1 UNK         0.0624 
    137 H137       33.7033   -1.8883   -5.4982 H         1 UNK         0.0624 
@<TRIPOS>BOND
     1    1    2 1    
     2    1   72 1    
     3    1   73 1    
     4    1   74 1    
     5    2    3 2    
     6    2    4 am   BACKBONE|DICT|INTERRES
     7    4    5 1    
     8    4   75 1    
     9    5    6 1    
    10    5   35 1    
    11    5   76 1    
    12    6    7 1    
    13    6   77 1    
    14    6   78 1    
    15    7    8 1    
    16    8    9 1    
    17    8   79 1    
    18    8   80 1    
    19    9   10 ar   
    20    9   14 ar   
    21   10   11 ar   
    22   10   81 1    
    23   11   12 ar   
    24   11   71 1    
    25   12   13 ar   
    26   12   82 1    
    27   13   14 ar   
    28   13   15 1    
    29   14   83 1    
    30   15   16 1    
    31   15   84 1    
    32   15   85 1    
    33   16   17 1    
    34   17   18 1    
    35   17   86 1    
    36   17   87 1    
    37   18   19 1    
    38   18   37 1    
    39   18   88 1    
    40   19   20 am   BACKBONE|DICT|INTERRES
    41   19   89 1    
    42   20   21 2    
    43   20   22 1    
    44   22   23 1    
    45   22   24 1    
    46   22   90 1    
    47   23   91 1    
    48   23   92 1    
    49   23   93 1    
    50   24   25 am   BACKBONE|DICT|INTERRES
    51   24   94 1    
    52   25   26 2    
    53   25   27 1    
    54   27   28 1    
    55   27   29 1    
    56   27   95 1    
    57   28   96 1    
    58   28   97 1    
    59   28   98 1    
    60   29   30 am   BACKBONE|DICT|INTERRES
    61   29   99 1    
    62   30   31 2    
    63   30   32 1    
    64   32   33 1    
    65   32   34 1    
    66   32  100 1    
    67   33  101 1    
    68   33  102 1    
    69   33  103 1    
    70   34   35 am   BACKBONE|DICT|INTERRES
    71   34  104 1    
    72   35   36 2    
    73   37   38 2    
    74   37   39 am   BACKBONE|DICT|INTERRES
    75   39   40 1    
    76   39  105 1    
    77   40   41 1    
    78   40   42 1    
    79   40  106 1    
    80   41  107 1    
    81   41  108 1    
    82   41  109 1    
    83   42   43 2    
    84   42   44 am   BACKBONE|DICT|INTERRES
    85   44   45 1    
    86   44  110 1    
    87   45   46 1    
    88   45   47 1    
    89   45  111 1    
    90   46  112 1    
    91   46  113 1    
    92   46  114 1    
    93   47   48 2    
    94   47   49 am   BACKBONE|DICT|INTERRES
    95   49   50 1    
    96   49  115 1    
    97   50   51 1    
    98   50   52 1    
    99   50  116 1    
   100   51  117 1    
   101   51  118 1    
   102   51  119 1    
   103   52   53 2    
   104   52   54 am   BACKBONE|DICT|INTERRES
   105   54   55 1    
   106   54  120 1    
   107   55   56 1    
   108   55   57 1    
   109   55  121 1    
   110   56  122 1    
   111   56  123 1    
   112   56  124 1    
   113   57   58 2    
   114   57   59 am   BACKBONE|DICT|INTERRES
   115   59   60 1    
   116   59  125 1    
   117   60   61 1    
   118   60   62 1    
   119   60  126 1    
   120   61  127 1    
   121   61  128 1    
   122   61  129 1    
   123   62   63 2    
   124   62   64 am   BACKBONE|DICT|INTERRES
   125   64   65 1    
   126   64  130 1    
   127   65   66 1    
   128   65   69 1    
   129   65  131 1    
   130   66   67 am   BACKBONE|DICT|INTERRES
   131   66   68 2    
   132   67  132 1    
   133   67  133 1    
   134   69   70 1    
   135   69  134 1    
   136   69  135 1    
   137   70   71 1    
   138   71  136 1    
   139   71  137 1    
@<TRIPOS>SUBSTRUCTURE
     1 UNK         1 GROUP             0       ****    0 ROOT    
