@<TRIPOS>MOLECULE
3R137
137   139    1
SMALL
USER_CHARGES


@<TRIPOS>ATOM
      1 CA         27.4353   -5.9530    0.3066 C.3       0 UNK        -0.2020 
      2 C          28.4035   -5.2461   -0.6390 C.2       0 UNK         0.4855 
      3 O          29.2088   -5.9148   -1.2819 O.2       0 UNK        -0.5197 
      4 N          28.3778   -3.9104   -0.7653 N.am      1 UNK        -0.4892 
      5 CA         27.4859   -2.9478   -0.0954 C.3       1 UNK         0.0835 
      6 C6         27.9110   -1.4724   -0.3306 C.3       12 UNK        -0.0855 
      7 S7         29.7074   -1.1576   -0.2246 S.3       12 UNK        -0.2931 
      8 C8         30.0237   -0.3770   -1.8429 C.3       12 UNK         0.0378 
      9 C9         30.4016   -1.3849   -2.9219 C.ar      12 UNK        -0.0802 
     10 C10        31.6993   -1.3827   -3.4376 C.ar      12 UNK        -0.0944 
     11 C11        32.0702   -2.2779   -4.4436 C.ar      12 UNK        -0.0787 
     12 C12        31.1427   -3.2178   -4.9033 C.ar      12 UNK        -0.0862 
     13 C13        29.8473   -3.2534   -4.3762 C.ar      12 UNK        -0.0733 
     14 C14        29.4723   -2.3084   -3.4146 C.ar      12 UNK        -0.0832 
     15 C15        28.8878   -4.3628   -4.7918 C.3       12 UNK         0.0240 
     16 S16        28.0103   -4.0123   -6.3462 S.3       12 UNK        -0.2522 
     17 C17        26.6878   -2.8866   -5.7865 C.3       12 UNK        -0.0967 
     18 CA         26.5356   -1.6269   -6.6684 C.3       5 UNK         0.0660 
     19 N          25.2794   -0.9283   -6.3767 N.am      5 UNK        -0.4015 
     20 C          24.8672    0.2147   -6.9472 C.2       4 UNK         0.4946 
     21 O          25.4390    0.7441   -7.9017 O.2       4 UNK        -0.5353 
     22 CA         23.6573    0.9349   -6.3244 C.3       4 UNK         0.0277 
     23 CB         22.4307    0.8035   -7.2410 C.3       4 UNK        -0.1981 
     24 N          23.2951    0.4990   -4.9704 N.am      4 UNK        -0.4209 
     25 C          24.0811    0.4930   -3.8819 C.2       3 UNK         0.4942 
     26 O          25.2615    0.8500   -3.8807 O.2       3 UNK        -0.5208 
     27 CA         23.4543   -0.0541   -2.5831 C.3       3 UNK         0.0250 
     28 CB         21.9089   -0.0340   -2.5845 C.3       3 UNK        -0.1990 
     29 N          23.9257   -1.4007   -2.2311 N.am      3 UNK        -0.4232 
     30 C          24.0141   -2.4850   -3.0177 C.2       2 UNK         0.4993 
     31 O          23.7965   -2.4772   -4.2314 O.2       2 UNK        -0.5286 
     32 CA         24.4421   -3.7938   -2.3216 C.3       2 UNK         0.0209 
     33 CB         24.4599   -5.0054   -3.2730 C.3       2 UNK        -0.1931 
     34 N          25.7598   -3.6673   -1.6961 N.am      2 UNK        -0.4546 
     35 C          26.0065   -3.0878   -0.5133 C.2       1 UNK         0.5154 
     36 O          25.1228   -2.6248    0.2084 O.2       1 UNK        -0.5181 
     37 C          27.7729   -0.7040   -6.5855 C.2       5 UNK         0.5014 
     38 O          28.6696   -0.8414   -7.4164 O.2       5 UNK        -0.5248 
     39 N          27.7651    0.2668   -5.6550 N.am      6 UNK        -0.4434 
     40 CA         28.7988    1.2997   -5.5205 C.3       6 UNK         0.0363 
     41 CB         28.4224    2.2490   -4.3715 C.3       6 UNK        -0.1936 
     42 C          29.0198    2.1184   -6.8061 C.2       6 UNK         0.5081 
     43 O          30.1633    2.4341   -7.1373 O.2       6 UNK        -0.5248 
     44 N          27.9238    2.4327   -7.5088 N.am      7 UNK        -0.4718 
     45 CA         27.9403    3.1354   -8.7881 C.3       7 UNK         0.0273 
     46 CB         26.6275    3.9155   -8.9661 C.3       7 UNK        -0.1935 
     47 C          28.1605    2.1619   -9.9526 C.2       7 UNK         0.5018 
     48 O          28.9814    2.4491  -10.8228 O.2       7 UNK        -0.5186 
     49 N          27.4434    1.0277   -9.9469 N.am      8 UNK        -0.4240 
     50 CA         27.4647    0.0251  -11.0181 C.3       8 UNK         0.0235 
     51 CB         26.3703   -1.0252  -10.7753 C.3       8 UNK        -0.2000 
     52 C          28.8334   -0.6490  -11.2153 C.2       8 UNK         0.4941 
     53 O          29.2370   -0.8586  -12.3598 O.2       8 UNK        -0.5273 
     54 N          29.5353   -0.9476  -10.1131 N.am      9 UNK        -0.4262 
     55 CA         30.9022   -1.4779  -10.1255 C.3       9 UNK         0.0264 
     56 CB         31.1227   -2.3264   -8.8610 C.3       9 UNK        -0.1955 
     57 C          31.9723   -0.3735  -10.2361 C.2       9 UNK         0.5031 
     58 O          33.1514   -0.7043  -10.3687 O.2       9 UNK        -0.5390 
     59 N          31.5562    0.9027  -10.1719 N.am      10 UNK        -0.4204 
     60 CA         32.3783    2.1199  -10.1787 C.3       10 UNK         0.0237 
     61 CB         33.0645    2.3122  -11.5479 C.3       10 UNK        -0.1985 
     62 C          33.3606    2.1998   -8.9922 C.2       10 UNK         0.4970 
     63 O          34.4617    2.7346   -9.1388 O.2       10 UNK        -0.4914 
     64 N          32.9406    1.6698   -7.8385 N.am      11 UNK        -0.4285 
     65 CA         33.6956    1.6924   -6.5797 C.3       11 UNK         0.1007 
     66 C          33.5573    3.0385   -5.8169 C.2       11 UNK         0.5703 
     67 N          32.4666    3.7780   -5.9829 N.am      11 UNK        -0.7361 
     68 O          34.4569    3.4188   -5.0714 O.2       11 UNK        -0.4986 
     69 C69        33.3066    0.5060   -5.6641 C.3       12 UNK        -0.0947 
     70 S70        33.6132   -1.1174   -6.4388 S.3       12 UNK        -0.2240 
     71 C71        33.4821   -2.2388   -5.0108 C.3       12 UNK         0.0194 
     72 H72        27.3089   -5.4128    1.2435 H         1 UNK         0.0906 
     73 H73        26.4605   -6.0774   -0.1638 H         1 UNK         0.0906 
     74 H74        27.8112   -6.9452    0.5555 H         1 UNK         0.0906 
     75 H75        29.1012   -3.4833   -1.3278 H         1 UNK         0.3140 
     76 H76        27.5424   -3.1371    0.9782 H         1 UNK         0.1085 
     77 H77        27.5444   -1.1120   -1.2935 H         1 UNK         0.0836 
     78 H78        27.4268   -0.8325    0.4102 H         1 UNK         0.0836 
     79 H79        30.8239    0.3534   -1.7122 H         1 UNK         0.0731 
     80 H80        29.1555    0.1961   -2.1605 H         1 UNK         0.0731 
     81 H81        32.4236   -0.6711   -3.0658 H         1 UNK         0.1312 
     82 H82        31.4336   -3.9332   -5.6604 H         1 UNK         0.1406 
     83 H83        28.4650   -2.3119   -3.0292 H         1 UNK         0.1631 
     84 H84        28.1659   -4.5670   -4.0000 H         1 UNK         0.0717 
     85 H85        29.4505   -5.2889   -4.9194 H         1 UNK         0.0717 
     86 H86        25.7614   -3.4611   -5.8208 H         1 UNK         0.0934 
     87 H87        26.8295   -2.6101   -4.7415 H         1 UNK         0.0934 
     88 H88        26.4567   -1.9604   -7.7025 H         1 UNK         0.0739 
     89 H89        24.7218   -1.3107   -5.6184 H         1 UNK         0.3093 
     90 H90        23.9238    1.9917   -6.2591 H         1 UNK         0.0818 
     91 H91        21.5954    1.4022   -6.8773 H         1 UNK         0.0819 
     92 H92        22.6576    1.1499   -8.2506 H         1 UNK         0.0819 
     93 H93        22.0955   -0.2316   -7.3198 H         1 UNK         0.0819 
     94 H94        22.3577    0.1404   -4.8592 H         1 UNK         0.3041 
     95 H95        23.7910    0.6108   -1.7861 H         1 UNK         0.0784 
     96 H96        21.5236    0.9547   -2.8386 H         1 UNK         0.0793 
     97 H97        21.4857   -0.7521   -3.2882 H         1 UNK         0.0793 
     98 H98        21.5178   -0.2801   -1.5971 H         1 UNK         0.0793 
     99 H99        24.1841   -1.5305   -1.2581 H         1 UNK         0.3024 
    100 H100       23.6973   -3.9965   -1.5480 H         1 UNK         0.1171 
    101 H101       23.4973   -5.1274   -3.7717 H         1 UNK         0.0786 
    102 H102       25.2198   -4.9063   -4.0475 H         1 UNK         0.0786 
    103 H103       24.6586   -5.9294   -2.7296 H         1 UNK         0.0786 
    104 H104       26.5470   -4.0094   -2.2263 H         1 UNK         0.2977 
    105 H105       26.9628    0.3468   -5.0382 H         1 UNK         0.3127 
    106 H106       29.7349    0.7953   -5.2722 H         1 UNK         0.0770 
    107 H107       29.2379    2.9408   -4.1561 H         1 UNK         0.0814 
    108 H108       28.1979    1.7103   -3.4537 H         1 UNK         0.0814 
    109 H109       27.5426    2.8465   -4.6150 H         1 UNK         0.0814 
    110 H110       27.0312    2.0620   -7.2080 H         1 UNK         0.2983 
    111 H111       28.7626    3.8550   -8.7921 H         1 UNK         0.0947 
    112 H112       26.6236    4.4594   -9.9117 H         1 UNK         0.0806 
    113 H113       26.4930    4.6487   -8.1708 H         1 UNK         0.0806 
    114 H114       25.7573    3.2579   -8.9650 H         1 UNK         0.0806 
    115 H115       26.7779    0.8799   -9.1903 H         1 UNK         0.3000 
    116 H116       27.2241    0.5483  -11.9462 H         1 UNK         0.0850 
    117 H117       26.2838   -1.6983  -11.6293 H         1 UNK         0.0810 
    118 H118       25.3949   -0.5613  -10.6263 H         1 UNK         0.0810 
    119 H119       26.5893   -1.6388   -9.9035 H         1 UNK         0.0810 
    120 H120       29.1271   -0.7836   -9.1924 H         1 UNK         0.3040 
    121 H121       31.0228   -2.1331  -10.9908 H         1 UNK         0.0766 
    122 H122       31.0740   -1.7206   -7.9557 H         1 UNK         0.0812 
    123 H123       32.1024   -2.8054   -8.8756 H         1 UNK         0.0812 
    124 H124       30.3753   -3.1150   -8.7727 H         1 UNK         0.0812 
    125 H125       30.5585    1.0658  -10.1148 H         1 UNK         0.3205 
    126 H126       31.6830    2.9495  -10.0421 H         1 UNK         0.0754 
    127 H127       33.5598    3.2823  -11.6055 H         1 UNK         0.0769 
    128 H128       32.3403    2.2714  -12.3616 H         1 UNK         0.0769 
    129 H129       33.8212    1.5492  -11.7327 H         1 UNK         0.0769 
    130 H130       31.9912    1.3279   -7.7787 H         1 UNK         0.2981 
    131 H131       34.7550    1.5812   -6.8192 H         1 UNK         0.0541 
    132 H132       31.6942    3.4258   -6.5409 H         1 UNK         0.3459 
    133 H133       32.3811    4.6543   -5.4943 H         1 UNK         0.3459 
    134 H134       32.2502    0.5686   -5.3981 H         1 UNK         0.0612 
    135 H135       33.8704    0.5476   -4.7303 H         1 UNK         0.0612 
    136 H136       34.1935   -1.9331   -4.2422 H         1 UNK         0.0624 
    137 H137       33.7837   -3.2395   -5.3236 H         1 UNK         0.0624 
@<TRIPOS>BOND
     1    1    2 1    
     2    1   72 1    
     3    1   73 1    
     4    1   74 1    
     5    2    3 2    
     6    2    4 am   BACKBONE|DICT|INTERRES
     7    4    5 1    
     8    4   75 1    
     9    5    6 1    
    10    5   35 1    
    11    5   76 1    
    12    6    7 1    
    13    6   77 1    
    14    6   78 1    
    15    7    8 1    
    16    8    9 1    
    17    8   79 1    
    18    8   80 1    
    19    9   10 ar   
    20    9   14 ar   
    21   10   11 ar   
    22   10   81 1    
    23   11   12 ar   
    24   11   71 1    
    25   12   13 ar   
    26   12   82 1    
    27   13   14 ar   
    28   13   15 1    
    29   14   83 1    
    30   15   16 1    
    31   15   84 1    
    32   15   85 1    
    33   16   17 1    
    34   17   18 1    
    35   17   86 1    
    36   17   87 1    
    37   18   19 1    
    38   18   37 1    
    39   18   88 1    
    40   19   20 am   BACKBONE|DICT|INTERRES
    41   19   89 1    
    42   20   21 2    
    43   20   22 1    
    44   22   23 1    
    45   22   24 1    
    46   22   90 1    
    47   23   91 1    
    48   23   92 1    
    49   23   93 1    
    50   24   25 am   BACKBONE|DICT|INTERRES
    51   24   94 1    
    52   25   26 2    
    53   25   27 1    
    54   27   28 1    
    55   27   29 1    
    56   27   95 1    
    57   28   96 1    
    58   28   97 1    
    59   28   98 1    
    60   29   30 am   BACKBONE|DICT|INTERRES
    61   29   99 1    
    62   30   31 2    
    63   30   32 1    
    64   32   33 1    
    65   32   34 1    
    66   32  100 1    
    67   33  101 1    
    68   33  102 1    
    69   33  103 1    
    70   34   35 am   BACKBONE|DICT|INTERRES
    71   34  104 1    
    72   35   36 2    
    73   37   38 2    
    74   37   39 am   BACKBONE|DICT|INTERRES
    75   39   40 1    
    76   39  105 1    
    77   40   41 1    
    78   40   42 1    
    79   40  106 1    
    80   41  107 1    
    81   41  108 1    
    82   41  109 1    
    83   42   43 2    
    84   42   44 am   BACKBONE|DICT|INTERRES
    85   44   45 1    
    86   44  110 1    
    87   45   46 1    
    88   45   47 1    
    89   45  111 1    
    90   46  112 1    
    91   46  113 1    
    92   46  114 1    
    93   47   48 2    
    94   47   49 am   BACKBONE|DICT|INTERRES
    95   49   50 1    
    96   49  115 1    
    97   50   51 1    
    98   50   52 1    
    99   50  116 1    
   100   51  117 1    
   101   51  118 1    
   102   51  119 1    
   103   52   53 2    
   104   52   54 am   BACKBONE|DICT|INTERRES
   105   54   55 1    
   106   54  120 1    
   107   55   56 1    
   108   55   57 1    
   109   55  121 1    
   110   56  122 1    
   111   56  123 1    
   112   56  124 1    
   113   57   58 2    
   114   57   59 am   BACKBONE|DICT|INTERRES
   115   59   60 1    
   116   59  125 1    
   117   60   61 1    
   118   60   62 1    
   119   60  126 1    
   120   61  127 1    
   121   61  128 1    
   122   61  129 1    
   123   62   63 2    
   124   62   64 am   BACKBONE|DICT|INTERRES
   125   64   65 1    
   126   64  130 1    
   127   65   66 1    
   128   65   69 1    
   129   65  131 1    
   130   66   67 am   BACKBONE|DICT|INTERRES
   131   66   68 2    
   132   67  132 1    
   133   67  133 1    
   134   69   70 1    
   135   69  134 1    
   136   69  135 1    
   137   70   71 1    
   138   71  136 1    
   139   71  137 1    
@<TRIPOS>SUBSTRUCTURE
     1 UNK         1 GROUP             0       ****    0 ROOT    
