@<TRIPOS>MOLECULE
3R137
137   139    1
SMALL
USER_CHARGES


@<TRIPOS>ATOM
      1 CA         28.5164   -2.7561   -5.3145 C.3       0 UNK        -0.2020 
      2 C          27.6389   -3.8016   -4.6465 C.2       0 UNK         0.4855 
      3 O          26.7316   -4.3405   -5.2824 O.2       0 UNK        -0.5197 
      4 N          27.9112   -4.0991   -3.3708 N.am      1 UNK        -0.4892 
      5 CA         27.2027   -5.0884   -2.5545 C.3       1 UNK         0.0835 
      6 C6         27.9275   -5.3400   -1.2116 C.3       12 UNK        -0.0855 
      7 S7         29.5904   -6.0455   -1.4603 S.3       12 UNK        -0.2931 
      8 C8         30.6400   -4.8616   -0.5610 C.3       12 UNK         0.0378 
      9 C9         30.9474   -3.6006   -1.3605 C.ar      12 UNK        -0.0802 
     10 C10        31.7763   -3.6730   -2.4847 C.ar      12 UNK        -0.0944 
     11 C11        32.1872   -2.5102   -3.1432 C.ar      12 UNK        -0.0787 
     12 C12        31.7540   -1.2667   -2.6731 C.ar      12 UNK        -0.0862 
     13 C13        30.9038   -1.1794   -1.5682 C.ar      12 UNK        -0.0733 
     14 C14        30.4943   -2.3514   -0.9214 C.ar      12 UNK        -0.0832 
     15 C15        30.4994    0.1822   -1.0194 C.3       12 UNK         0.0240 
     16 S16        28.9062    0.7574   -1.6825 S.3       12 UNK        -0.2522 
     17 C17        29.3756    1.6271   -3.2231 C.3       12 UNK        -0.0967 
     18 CA         28.6930    1.0052   -4.4713 C.3       5 UNK         0.0660 
     19 N          27.2344    0.9166   -4.3357 N.am      5 UNK        -0.4015 
     20 C          26.3198    1.8922   -4.4002 C.2       4 UNK         0.4946 
     21 O          26.5610    3.0418   -4.7734 O.2       4 UNK        -0.5353 
     22 CA         24.8913    1.5120   -3.9535 C.3       4 UNK         0.0277 
     23 CB         23.9169    2.7055   -3.9814 C.3       4 UNK        -0.1981 
     24 N          24.3085    0.3956   -4.7084 N.am      4 UNK        -0.4209 
     25 C          24.6602   -0.8901   -4.5785 C.2       3 UNK         0.4942 
     26 O          25.5922   -1.2689   -3.8650 O.2       3 UNK        -0.5208 
     27 CA         23.8596   -1.9123   -5.3982 C.3       3 UNK         0.0250 
     28 CB         24.4210   -2.0403   -6.8223 C.3       3 UNK        -0.1990 
     29 N          23.9174   -3.2207   -4.7482 N.am      3 UNK        -0.4232 
     30 C          23.0699   -3.6301   -3.7944 C.2       2 UNK         0.4993 
     31 O          22.0650   -3.0028   -3.4562 O.2       2 UNK        -0.5286 
     32 CA         23.3890   -4.9626   -3.0932 C.3       2 UNK         0.0209 
     33 CB         22.6099   -6.1158   -3.7467 C.3       2 UNK        -0.1931 
     34 N          24.8190   -5.2823   -3.0983 N.am      2 UNK        -0.4546 
     35 C          25.7333   -4.6775   -2.3270 C.2       1 UNK         0.5154 
     36 O          25.4577   -3.8334   -1.4716 O.2       1 UNK        -0.5181 
     37 C          29.1153    1.6626   -5.8021 C.2       5 UNK         0.5014 
     38 O          29.2408    0.9660   -6.8096 O.2       5 UNK        -0.5248 
     39 N          29.2992    2.9904   -5.8090 N.am      6 UNK        -0.4434 
     40 CA         29.5866    3.7958   -7.0010 C.3       6 UNK         0.0363 
     41 CB         29.8808    5.2420   -6.5743 C.3       6 UNK        -0.1936 
     42 C          28.4728    3.7597   -8.0659 C.2       6 UNK         0.5081 
     43 O          28.7620    4.0042   -9.2363 O.2       6 UNK        -0.5248 
     44 N          27.2379    3.4308   -7.6576 N.am      7 UNK        -0.4718 
     45 CA         26.0985    3.1958   -8.5501 C.3       7 UNK         0.0273 
     46 CB         24.8023    3.2288   -7.7264 C.3       7 UNK        -0.1935 
     47 C          26.1884    1.8749   -9.3414 C.2       7 UNK         0.5018 
     48 O          25.4365    1.7115  -10.3039 O.2       7 UNK        -0.5186 
     49 N          27.0754    0.9572   -8.9276 N.am      8 UNK        -0.4240 
     50 CA         27.3813   -0.2918   -9.6274 C.3       8 UNK         0.0235 
     51 CB         27.7647   -1.3605   -8.5846 C.3       8 UNK        -0.2000 
     52 C          28.4880   -0.0525  -10.6732 C.2       8 UNK         0.4941 
     53 O          28.5998    1.0477  -11.2192 O.2       8 UNK        -0.5273 
     54 N          29.3310   -1.0643  -10.9194 N.am      9 UNK        -0.4262 
     55 CA         30.5060   -0.9997  -11.7974 C.3       9 UNK         0.0264 
     56 CB         30.9042   -2.4332  -12.1978 C.3       9 UNK        -0.1955 
     57 C          31.6767   -0.2110  -11.1661 C.2       9 UNK         0.5031 
     58 O          32.7977   -0.7196  -11.1077 O.2       9 UNK        -0.5390 
     59 N          31.3829    1.0103  -10.6944 N.am      10 UNK        -0.4204 
     60 CA         32.2715    1.9661  -10.0234 C.3       10 UNK         0.0237 
     61 CB         33.2627    2.5755  -11.0377 C.3       10 UNK        -0.1985 
     62 C          32.9696    1.3762   -8.7805 C.2       10 UNK         0.4970 
     63 O          34.1806    1.5423   -8.6208 O.2       10 UNK        -0.4914 
     64 N          32.1976    0.6858   -7.9284 N.am      11 UNK        -0.4285 
     65 CA         32.6976    0.0353   -6.7051 C.3       11 UNK         0.1007 
     66 C          33.1477    1.0354   -5.5974 C.2       11 UNK         0.5703 
     67 N          32.6346    2.2596   -5.5645 N.am      11 UNK        -0.7361 
     68 O          33.9853    0.7053   -4.7642 O.2       11 UNK        -0.4986 
     69 C69        31.6810   -1.0159   -6.1647 C.3       12 UNK        -0.0947 
     70 S70        32.3750   -2.6865   -5.9337 S.3       12 UNK        -0.2240 
     71 C71        33.1745   -2.5967   -4.3000 C.3       12 UNK         0.0194 
     72 H72        28.9388   -3.1520   -6.2376 H         1 UNK         0.0906 
     73 H73        27.9231   -1.8765   -5.5578 H         1 UNK         0.0906 
     74 H74        29.3415   -2.4505   -4.6711 H         1 UNK         0.0906 
     75 H75        28.6712   -3.6261   -2.9021 H         1 UNK         0.3140 
     76 H76        27.2045   -6.0295   -3.1094 H         1 UNK         0.1085 
     77 H77        27.3617   -6.0431   -0.5970 H         1 UNK         0.0836 
     78 H78        27.9940   -4.4168   -0.6324 H         1 UNK         0.0836 
     79 H79        30.1802   -4.6193    0.3985 H         1 UNK         0.0731 
     80 H80        31.5829   -5.3552   -0.3209 H         1 UNK         0.0731 
     81 H81        32.1385   -4.6360   -2.8189 H         1 UNK         0.1312 
     82 H82        32.1052   -0.3615   -3.1467 H         1 UNK         0.1406 
     83 H83        29.8648   -2.2838   -0.0442 H         1 UNK         0.1631 
     84 H84        31.2759    0.9241   -1.2125 H         1 UNK         0.0717 
     85 H85        30.4147    0.1217    0.0667 H         1 UNK         0.0717 
     86 H86        29.0912    2.6734   -3.1006 H         1 UNK         0.0934 
     87 H87        30.4610    1.6150   -3.3372 H         1 UNK         0.0934 
     88 H88        29.0390   -0.0254   -4.5307 H         1 UNK         0.0739 
     89 H89        26.8782    0.0037   -4.0567 H         1 UNK         0.3093 
     90 H90        24.9767    1.1984   -2.9104 H         1 UNK         0.0818 
     91 H91        22.9501    2.4375   -3.5549 H         1 UNK         0.0819 
     92 H92        24.3040    3.5396   -3.3945 H         1 UNK         0.0819 
     93 H93        23.7458    3.0733   -4.9923 H         1 UNK         0.0819 
     94 H94        23.5545    0.6284   -5.3387 H         1 UNK         0.3041 
     95 H95        22.8230   -1.5740   -5.4614 H         1 UNK         0.0784 
     96 H96        23.7726   -2.6577   -7.4441 H         1 UNK         0.0793 
     97 H97        24.5083   -1.0683   -7.3101 H         1 UNK         0.0793 
     98 H98        25.4074   -2.5024   -6.8190 H         1 UNK         0.0793 
     99 H99        24.7663   -3.7551   -4.9036 H         1 UNK         0.3024 
    100 H100       23.0594   -4.8700   -2.0555 H         1 UNK         0.1171 
    101 H101       22.9022   -6.2632   -4.7873 H         1 UNK         0.0786 
    102 H102       21.5372   -5.9174   -3.7346 H         1 UNK         0.0786 
    103 H103       22.7698   -7.0544   -3.2156 H         1 UNK         0.0786 
    104 H104       25.1357   -5.9347   -3.8023 H         1 UNK         0.2977 
    105 H105       29.0889    3.5023   -4.9637 H         1 UNK         0.3127 
    106 H106       30.4842    3.3890   -7.4692 H         1 UNK         0.0770 
    107 H107       29.0216    5.6989   -6.0815 H         1 UNK         0.0814 
    108 H108       30.1278    5.8613   -7.4379 H         1 UNK         0.0814 
    109 H109       30.7279    5.2914   -5.8900 H         1 UNK         0.0814 
    110 H110       27.0785    3.2854   -6.6636 H         1 UNK         0.2983 
    111 H111       26.0642    4.0094   -9.2781 H         1 UNK         0.0947 
    112 H112       23.9265    3.1732   -8.3744 H         1 UNK         0.0806 
    113 H113       24.7194    4.1483   -7.1465 H         1 UNK         0.0806 
    114 H114       24.7498    2.3861   -7.0376 H         1 UNK         0.0806 
    115 H115       27.6893    1.1900   -8.1549 H         1 UNK         0.3000 
    116 H116       26.4912   -0.6358  -10.1584 H         1 UNK         0.0850 
    117 H117       28.7702   -1.2100   -8.1909 H         1 UNK         0.0810 
    118 H118       27.0843   -1.3359   -7.7371 H         1 UNK         0.0810 
    119 H119       27.7174   -2.3655   -9.0054 H         1 UNK         0.0810 
    120 H120       29.1984   -1.9290  -10.4150 H         1 UNK         0.3040 
    121 H121       30.2254   -0.4697  -12.7103 H         1 UNK         0.0766 
    122 H122       30.0799   -2.9533  -12.6861 H         1 UNK         0.0812 
    123 H123       31.2104   -3.0236  -11.3333 H         1 UNK         0.0812 
    124 H124       31.7389   -2.4260  -12.9001 H         1 UNK         0.0812 
    125 H125       30.4148    1.3073  -10.8098 H         1 UNK         0.3205 
    126 H126       31.6340    2.7741   -9.6614 H         1 UNK         0.0754 
    127 H127       32.7396    3.0204  -11.8842 H         1 UNK         0.0769 
    128 H128       33.9537    1.8267  -11.4269 H         1 UNK         0.0769 
    129 H129       33.8603    3.3637  -10.5779 H         1 UNK         0.0769 
    130 H130       31.2032    0.6157   -8.0951 H         1 UNK         0.2981 
    131 H131       33.6041   -0.4957   -7.0027 H         1 UNK         0.0541 
    132 H132       31.9614    2.5523   -6.2507 H         1 UNK         0.3459 
    133 H133       32.9527    2.9032   -4.8576 H         1 UNK         0.3459 
    134 H134       30.8646   -1.1501   -6.8750 H         1 UNK         0.0612 
    135 H135       31.1901   -0.6878   -5.2510 H         1 UNK         0.0612 
    136 H136       33.7925   -3.4878   -4.1812 H         1 UNK         0.0624 
    137 H137       33.8698   -1.7601   -4.2709 H         1 UNK         0.0624 
@<TRIPOS>BOND
     1    1    2 1    
     2    1   72 1    
     3    1   73 1    
     4    1   74 1    
     5    2    3 2    
     6    2    4 am   BACKBONE|DICT|INTERRES
     7    4    5 1    
     8    4   75 1    
     9    5    6 1    
    10    5   35 1    
    11    5   76 1    
    12    6    7 1    
    13    6   77 1    
    14    6   78 1    
    15    7    8 1    
    16    8    9 1    
    17    8   79 1    
    18    8   80 1    
    19    9   10 ar   
    20    9   14 ar   
    21   10   11 ar   
    22   10   81 1    
    23   11   12 ar   
    24   11   71 1    
    25   12   13 ar   
    26   12   82 1    
    27   13   14 ar   
    28   13   15 1    
    29   14   83 1    
    30   15   16 1    
    31   15   84 1    
    32   15   85 1    
    33   16   17 1    
    34   17   18 1    
    35   17   86 1    
    36   17   87 1    
    37   18   19 1    
    38   18   37 1    
    39   18   88 1    
    40   19   20 am   BACKBONE|DICT|INTERRES
    41   19   89 1    
    42   20   21 2    
    43   20   22 1    
    44   22   23 1    
    45   22   24 1    
    46   22   90 1    
    47   23   91 1    
    48   23   92 1    
    49   23   93 1    
    50   24   25 am   BACKBONE|DICT|INTERRES
    51   24   94 1    
    52   25   26 2    
    53   25   27 1    
    54   27   28 1    
    55   27   29 1    
    56   27   95 1    
    57   28   96 1    
    58   28   97 1    
    59   28   98 1    
    60   29   30 am   BACKBONE|DICT|INTERRES
    61   29   99 1    
    62   30   31 2    
    63   30   32 1    
    64   32   33 1    
    65   32   34 1    
    66   32  100 1    
    67   33  101 1    
    68   33  102 1    
    69   33  103 1    
    70   34   35 am   BACKBONE|DICT|INTERRES
    71   34  104 1    
    72   35   36 2    
    73   37   38 2    
    74   37   39 am   BACKBONE|DICT|INTERRES
    75   39   40 1    
    76   39  105 1    
    77   40   41 1    
    78   40   42 1    
    79   40  106 1    
    80   41  107 1    
    81   41  108 1    
    82   41  109 1    
    83   42   43 2    
    84   42   44 am   BACKBONE|DICT|INTERRES
    85   44   45 1    
    86   44  110 1    
    87   45   46 1    
    88   45   47 1    
    89   45  111 1    
    90   46  112 1    
    91   46  113 1    
    92   46  114 1    
    93   47   48 2    
    94   47   49 am   BACKBONE|DICT|INTERRES
    95   49   50 1    
    96   49  115 1    
    97   50   51 1    
    98   50   52 1    
    99   50  116 1    
   100   51  117 1    
   101   51  118 1    
   102   51  119 1    
   103   52   53 2    
   104   52   54 am   BACKBONE|DICT|INTERRES
   105   54   55 1    
   106   54  120 1    
   107   55   56 1    
   108   55   57 1    
   109   55  121 1    
   110   56  122 1    
   111   56  123 1    
   112   56  124 1    
   113   57   58 2    
   114   57   59 am   BACKBONE|DICT|INTERRES
   115   59   60 1    
   116   59  125 1    
   117   60   61 1    
   118   60   62 1    
   119   60  126 1    
   120   61  127 1    
   121   61  128 1    
   122   61  129 1    
   123   62   63 2    
   124   62   64 am   BACKBONE|DICT|INTERRES
   125   64   65 1    
   126   64  130 1    
   127   65   66 1    
   128   65   69 1    
   129   65  131 1    
   130   66   67 am   BACKBONE|DICT|INTERRES
   131   66   68 2    
   132   67  132 1    
   133   67  133 1    
   134   69   70 1    
   135   69  134 1    
   136   69  135 1    
   137   70   71 1    
   138   71  136 1    
   139   71  137 1    
@<TRIPOS>SUBSTRUCTURE
     1 UNK         1 GROUP             0       ****    0 ROOT    
