@<TRIPOS>MOLECULE
3R137
137   139    1
SMALL
USER_CHARGES


@<TRIPOS>ATOM
      1 CA         30.7324   -5.2038   -5.1106 C.3       0 UNK        -0.2020 
      2 C          29.4237   -5.5797   -4.4326 C.2       0 UNK         0.4855 
      3 O          29.0105   -6.7380   -4.4891 O.2       0 UNK        -0.5197 
      4 N          28.7676   -4.6049   -3.8000 N.am      1 UNK        -0.4892 
      5 CA         27.4663   -4.7234   -3.1451 C.3       1 UNK         0.0835 
      6 C6         27.5354   -5.4658   -1.7777 C.3       12 UNK        -0.0855 
      7 S7         28.2268   -4.5279   -0.3658 S.3       12 UNK        -0.2931 
      8 C8         30.0276   -4.7337   -0.5804 C.3       12 UNK         0.0378 
      9 C9         30.7389   -3.5408   -1.2232 C.ar      12 UNK        -0.0802 
     10 C10        31.9131   -3.7685   -1.9486 C.ar      12 UNK        -0.0944 
     11 C11        32.6505   -2.7027   -2.4720 C.ar      12 UNK        -0.0787 
     12 C12        32.2042   -1.3951   -2.2685 C.ar      12 UNK        -0.0862 
     13 C13        31.0186   -1.1464   -1.5734 C.ar      12 UNK        -0.0733 
     14 C14        30.2946   -2.2219   -1.0467 C.ar      12 UNK        -0.0832 
     15 C15        30.5440    0.2876   -1.3631 C.3       12 UNK         0.0240 
     16 S16        30.2766    1.1815   -2.9314 S.3       12 UNK        -0.2522 
     17 C17        28.8331    0.2916   -3.5925 C.3       12 UNK        -0.0967 
     18 CA         28.5093    0.6474   -5.0652 C.3       5 UNK         0.0660 
     19 N          27.6658   -0.3780   -5.6764 N.am      5 UNK        -0.4015 
     20 C          27.3427   -0.4647   -6.9723 C.2       4 UNK         0.4946 
     21 O          27.7884    0.2741   -7.8489 O.2       4 UNK        -0.5353 
     22 CA         26.3159   -1.5409   -7.3547 C.3       4 UNK         0.0277 
     23 CB         27.0003   -2.8976   -7.5801 C.3       4 UNK        -0.1981 
     24 N          25.2529   -1.6771   -6.3566 N.am      4 UNK        -0.4209 
     25 C          24.3182   -0.7450   -6.1207 C.2       3 UNK         0.4942 
     26 O          24.2454    0.3224   -6.7280 O.2       3 UNK        -0.5208 
     27 CA         23.3175   -1.0388   -4.9919 C.3       3 UNK         0.0250 
     28 CB         22.2076   -1.9843   -5.4784 C.3       3 UNK        -0.1990 
     29 N          23.9565   -1.5964   -3.7972 N.am      3 UNK        -0.4232 
     30 C          24.8309   -0.9285   -3.0324 C.2       2 UNK         0.4993 
     31 O          25.2000    0.2250   -3.2531 O.2       2 UNK        -0.5286 
     32 CA         25.4359   -1.6959   -1.8475 C.3       2 UNK         0.0209 
     33 CB         24.4365   -1.7809   -0.6826 C.3       2 UNK        -0.1931 
     34 N          25.9314   -3.0398   -2.1732 N.am      2 UNK        -0.4546 
     35 C          26.8360   -3.3165   -3.1237 C.2       1 UNK         0.5154 
     36 O          27.1992   -2.4943   -3.9672 O.2       1 UNK        -0.5181 
     37 C          27.8760    2.0464   -5.2087 C.2       5 UNK         0.5014 
     38 O          28.5453    2.9663   -5.6810 O.2       5 UNK        -0.5248 
     39 N          26.5881    2.1740   -4.8492 N.am      6 UNK        -0.4434 
     40 CA         25.8055    3.4090   -4.9689 C.3       6 UNK         0.0363 
     41 CB         24.4322    3.2184   -4.3059 C.3       6 UNK        -0.1936 
     42 C          25.6403    3.8917   -6.4203 C.2       6 UNK         0.5081 
     43 O          25.7265    5.0941   -6.6707 O.2       6 UNK        -0.5248 
     44 N          25.4298    2.9520   -7.3518 N.am      7 UNK        -0.4718 
     45 CA         25.3425    3.2153   -8.7914 C.3       7 UNK         0.0273 
     46 CB         24.6714    2.0119   -9.4748 C.3       7 UNK        -0.1935 
     47 C          26.7022    3.5038   -9.4558 C.2       7 UNK         0.5018 
     48 O          26.7144    3.9745  -10.5939 O.2       7 UNK        -0.5186 
     49 N          27.8071    3.1819   -8.7641 N.am      8 UNK        -0.4240 
     50 CA         29.1939    3.1668   -9.2487 C.3       8 UNK         0.0235 
     51 CB         29.6878    4.5908   -9.5804 C.3       8 UNK        -0.2000 
     52 C          29.4050    2.1645  -10.4037 C.2       8 UNK         0.4941 
     53 O          30.2216    2.4055  -11.2948 O.2       8 UNK        -0.5273 
     54 N          28.6590    1.0535  -10.3603 N.am      9 UNK        -0.4262 
     55 CA         28.7286   -0.0595  -11.3056 C.3       9 UNK         0.0264 
     56 CB         27.3479   -0.7302  -11.3893 C.3       9 UNK        -0.1955 
     57 C          29.8010   -1.0838  -10.9020 C.2       9 UNK         0.5031 
     58 O          30.3031   -1.7991  -11.7702 O.2       9 UNK        -0.5390 
     59 N          30.1403   -1.1313   -9.6086 N.am      10 UNK        -0.4204 
     60 CA         31.2313   -1.9173   -9.0447 C.3       10 UNK         0.0237 
     61 CB         30.6749   -3.2035   -8.4095 C.3       10 UNK        -0.1985 
     62 C          31.9376   -1.0598   -7.9923 C.2       10 UNK         0.4970 
     63 O          31.2988   -0.1910   -7.3928 O.2       10 UNK        -0.4914 
     64 N          33.2257   -1.3483   -7.7731 N.am      11 UNK        -0.4285 
     65 CA         34.0936   -0.7043   -6.7731 C.3       11 UNK         0.1007 
     66 C          34.2888    0.8251   -7.0213 C.2       11 UNK         0.5703 
     67 N          34.6309    1.6095   -6.0069 N.am      11 UNK        -0.7361 
     68 O          34.1958    1.3042   -8.1506 O.2       11 UNK        -0.4986 
     69 C69        33.6806   -1.0757   -5.3176 C.3       12 UNK        -0.0947 
     70 S70        33.7030   -2.8795   -5.0308 S.3       12 UNK        -0.2240 
     71 C71        33.9447   -2.9626   -3.2295 C.3       12 UNK         0.0194 
     72 H72        31.5692   -5.6919   -4.6121 H         1 UNK         0.0906 
     73 H73        30.7222   -5.5221   -6.1525 H         1 UNK         0.0906 
     74 H74        30.9054   -4.1277   -5.0877 H         1 UNK         0.0906 
     75 H75        29.1168   -3.6550   -3.8234 H         1 UNK         0.3140 
     76 H76        26.8268   -5.3111   -3.8074 H         1 UNK         0.1085 
     77 H77        28.0876   -6.4005   -1.8853 H         1 UNK         0.0836 
     78 H78        26.5296   -5.7768   -1.4909 H         1 UNK         0.0836 
     79 H79        30.2215   -5.6437   -1.1502 H         1 UNK         0.0731 
     80 H80        30.4685   -4.8930    0.4043 H         1 UNK         0.0731 
     81 H81        32.2698   -4.7803   -2.0859 H         1 UNK         0.1312 
     82 H82        32.7762   -0.5640   -2.6563 H         1 UNK         0.1406 
     83 H83        29.3961   -2.0263   -0.4783 H         1 UNK         0.1631 
     84 H84        31.2940    0.8228   -0.7791 H         1 UNK         0.0717 
     85 H85        29.6232    0.3144   -0.7782 H         1 UNK         0.0717 
     86 H86        29.0673   -0.7711   -3.5245 H         1 UNK         0.0934 
     87 H87        27.9726    0.4528   -2.9406 H         1 UNK         0.0934 
     88 H88        29.4453    0.6518   -5.6276 H         1 UNK         0.0739 
     89 H89        27.3020   -1.0882   -5.0423 H         1 UNK         0.3093 
     90 H90        25.8502   -1.2347   -8.2936 H         1 UNK         0.0818 
     91 H91        27.5183   -3.2474   -6.6860 H         1 UNK         0.0819 
     92 H92        26.2804   -3.6621   -7.8722 H         1 UNK         0.0819 
     93 H93        27.7354   -2.8281   -8.3823 H         1 UNK         0.0819 
     94 H94        25.2705   -2.5029   -5.7765 H         1 UNK         0.3041 
     95 H95        22.8551   -0.0903   -4.7097 H         1 UNK         0.0784 
     96 H96        21.7101   -1.5785   -6.3606 H         1 UNK         0.0793 
     97 H97        22.5977   -2.9667   -5.7473 H         1 UNK         0.0793 
     98 H98        21.4430   -2.1242   -4.7140 H         1 UNK         0.0793 
     99 H99        23.7229   -2.5458   -3.5450 H         1 UNK         0.3024 
    100 H100       26.2971   -1.1166   -1.5071 H         1 UNK         0.1171 
    101 H101       24.9036   -2.1977    0.2100 H         1 UNK         0.0786 
    102 H102       24.0613   -0.7915   -0.4163 H         1 UNK         0.0786 
    103 H103       23.5744   -2.4011   -0.9309 H         1 UNK         0.0786 
    104 H104       25.7037   -3.7693   -1.5130 H         1 UNK         0.2977 
    105 H105       26.1092    1.3776   -4.4318 H         1 UNK         0.3127 
    106 H106       26.3405    4.1890   -4.4233 H         1 UNK         0.0770 
    107 H107       23.8642    2.4171   -4.7804 H         1 UNK         0.0814 
    108 H108       23.8346    4.1284   -4.3733 H         1 UNK         0.0814 
    109 H109       24.5333    2.9745   -3.2482 H         1 UNK         0.0814 
    110 H110       25.2904    1.9894   -7.0558 H         1 UNK         0.2983 
    111 H111       24.7123    4.0939   -8.9455 H         1 UNK         0.0947 
    112 H112       24.5586    2.1796  -10.5468 H         1 UNK         0.0806 
    113 H113       23.6758    1.8300   -9.0696 H         1 UNK         0.0806 
    114 H114       25.2563    1.1002   -9.3465 H         1 UNK         0.0806 
    115 H115       27.6763    2.7989   -7.8353 H         1 UNK         0.3000 
    116 H116       29.7949    2.7944   -8.4171 H         1 UNK         0.0850 
    117 H117       30.7568    4.5918   -9.7968 H         1 UNK         0.0810 
    118 H118       29.5268    5.2700   -8.7433 H         1 UNK         0.0810 
    119 H119       29.1805    5.0044  -10.4523 H         1 UNK         0.0810 
    120 H120       28.0881    0.9061   -9.5289 H         1 UNK         0.3040 
    121 H121       28.9853    0.3250  -12.2951 H         1 UNK         0.0766 
    122 H122       26.5806   -0.0206  -11.6995 H         1 UNK         0.0812 
    123 H123       27.0460   -1.1537  -10.4314 H         1 UNK         0.0812 
    124 H124       27.3530   -1.5422  -12.1177 H         1 UNK         0.0812 
    125 H125       29.7143   -0.4767   -8.9607 H         1 UNK         0.3205 
    126 H126       31.9494   -2.1748   -9.8265 H         1 UNK         0.0754 
    127 H127       31.4835   -3.8358   -8.0409 H         1 UNK         0.0769 
    128 H128       30.1062   -3.7908   -9.1307 H         1 UNK         0.0769 
    129 H129       30.0241   -2.9843   -7.5622 H         1 UNK         0.0769 
    130 H130       33.6657   -2.0681   -8.3269 H         1 UNK         0.2981 
    131 H131       35.0841   -1.1272   -6.9433 H         1 UNK         0.0541 
    132 H132       34.7384    1.2423   -5.0754 H         1 UNK         0.3459 
    133 H133       34.7786    2.5914   -6.1790 H         1 UNK         0.3459 
    134 H134       34.3637   -0.6199   -4.6005 H         1 UNK         0.0612 
    135 H135       32.6844   -0.6936   -5.0890 H         1 UNK         0.0612 
    136 H136       34.7134   -2.2532   -2.9201 H         1 UNK         0.0624 
    137 H137       34.3312   -3.9520   -2.9806 H         1 UNK         0.0624 
@<TRIPOS>BOND
     1    1    2 1    
     2    1   72 1    
     3    1   73 1    
     4    1   74 1    
     5    2    3 2    
     6    2    4 am   BACKBONE|DICT|INTERRES
     7    4    5 1    
     8    4   75 1    
     9    5    6 1    
    10    5   35 1    
    11    5   76 1    
    12    6    7 1    
    13    6   77 1    
    14    6   78 1    
    15    7    8 1    
    16    8    9 1    
    17    8   79 1    
    18    8   80 1    
    19    9   10 ar   
    20    9   14 ar   
    21   10   11 ar   
    22   10   81 1    
    23   11   12 ar   
    24   11   71 1    
    25   12   13 ar   
    26   12   82 1    
    27   13   14 ar   
    28   13   15 1    
    29   14   83 1    
    30   15   16 1    
    31   15   84 1    
    32   15   85 1    
    33   16   17 1    
    34   17   18 1    
    35   17   86 1    
    36   17   87 1    
    37   18   19 1    
    38   18   37 1    
    39   18   88 1    
    40   19   20 am   BACKBONE|DICT|INTERRES
    41   19   89 1    
    42   20   21 2    
    43   20   22 1    
    44   22   23 1    
    45   22   24 1    
    46   22   90 1    
    47   23   91 1    
    48   23   92 1    
    49   23   93 1    
    50   24   25 am   BACKBONE|DICT|INTERRES
    51   24   94 1    
    52   25   26 2    
    53   25   27 1    
    54   27   28 1    
    55   27   29 1    
    56   27   95 1    
    57   28   96 1    
    58   28   97 1    
    59   28   98 1    
    60   29   30 am   BACKBONE|DICT|INTERRES
    61   29   99 1    
    62   30   31 2    
    63   30   32 1    
    64   32   33 1    
    65   32   34 1    
    66   32  100 1    
    67   33  101 1    
    68   33  102 1    
    69   33  103 1    
    70   34   35 am   BACKBONE|DICT|INTERRES
    71   34  104 1    
    72   35   36 2    
    73   37   38 2    
    74   37   39 am   BACKBONE|DICT|INTERRES
    75   39   40 1    
    76   39  105 1    
    77   40   41 1    
    78   40   42 1    
    79   40  106 1    
    80   41  107 1    
    81   41  108 1    
    82   41  109 1    
    83   42   43 2    
    84   42   44 am   BACKBONE|DICT|INTERRES
    85   44   45 1    
    86   44  110 1    
    87   45   46 1    
    88   45   47 1    
    89   45  111 1    
    90   46  112 1    
    91   46  113 1    
    92   46  114 1    
    93   47   48 2    
    94   47   49 am   BACKBONE|DICT|INTERRES
    95   49   50 1    
    96   49  115 1    
    97   50   51 1    
    98   50   52 1    
    99   50  116 1    
   100   51  117 1    
   101   51  118 1    
   102   51  119 1    
   103   52   53 2    
   104   52   54 am   BACKBONE|DICT|INTERRES
   105   54   55 1    
   106   54  120 1    
   107   55   56 1    
   108   55   57 1    
   109   55  121 1    
   110   56  122 1    
   111   56  123 1    
   112   56  124 1    
   113   57   58 2    
   114   57   59 am   BACKBONE|DICT|INTERRES
   115   59   60 1    
   116   59  125 1    
   117   60   61 1    
   118   60   62 1    
   119   60  126 1    
   120   61  127 1    
   121   61  128 1    
   122   61  129 1    
   123   62   63 2    
   124   62   64 am   BACKBONE|DICT|INTERRES
   125   64   65 1    
   126   64  130 1    
   127   65   66 1    
   128   65   69 1    
   129   65  131 1    
   130   66   67 am   BACKBONE|DICT|INTERRES
   131   66   68 2    
   132   67  132 1    
   133   67  133 1    
   134   69   70 1    
   135   69  134 1    
   136   69  135 1    
   137   70   71 1    
   138   71  136 1    
   139   71  137 1    
@<TRIPOS>SUBSTRUCTURE
     1 UNK         1 GROUP             0       ****    0 ROOT    
