@<TRIPOS>MOLECULE
3R137
137   139    1
SMALL
USER_CHARGES


@<TRIPOS>ATOM
      1 CA         22.0701   -4.6381   -1.8360 C.3       0 UNK        -0.2020 
      2 C          23.3312   -3.9771   -1.3014 C.2       0 UNK         0.4855 
      3 O          23.2431   -2.9355   -0.6519 O.2       0 UNK        -0.5197 
      4 N          24.4943   -4.5830   -1.5810 N.am      1 UNK        -0.4892 
      5 CA         25.8514   -4.1940   -1.1664 C.3       1 UNK         0.0835 
      6 C6         26.8645   -5.2511   -1.6932 C.3       12 UNK        -0.0855 
      7 S7         28.6386   -4.8688   -1.4592 S.3       12 UNK        -0.2931 
      8 C8         29.1801   -4.7355   -3.2025 C.3       12 UNK         0.0378 
      9 C9         30.3069   -3.7369   -3.4414 C.ar      12 UNK        -0.0802 
     10 C10        31.2514   -3.9854   -4.4428 C.ar      12 UNK        -0.0944 
     11 C11        32.2356   -3.0385   -4.7442 C.ar      12 UNK        -0.0787 
     12 C12        32.2760   -1.8352   -4.0346 C.ar      12 UNK        -0.0862 
     13 C13        31.3352   -1.5728   -3.0357 C.ar      12 UNK        -0.0733 
     14 C14        30.3615   -2.5294   -2.7388 C.ar      12 UNK        -0.0832 
     15 C15        31.3536   -0.2466   -2.2923 C.3       12 UNK         0.0240 
     16 S16        30.5709    1.0816   -3.2620 S.3       12 UNK        -0.2522 
     17 C17        28.8351    0.5240   -3.3671 C.3       12 UNK        -0.0967 
     18 CA         28.3796    0.2780   -4.8297 C.3       5 UNK         0.0660 
     19 N          27.3194   -0.7357   -4.9255 N.am      5 UNK        -0.4015 
     20 C          26.7703   -1.1744   -6.0699 C.2       4 UNK         0.4946 
     21 O          27.1631   -0.8515   -7.1892 O.2       4 UNK        -0.5353 
     22 CA         25.5248   -2.0684   -5.9581 C.3       4 UNK         0.0277 
     23 CB         25.9004   -3.5538   -5.8441 C.3       4 UNK        -0.1981 
     24 N          24.6687   -1.6715   -4.8391 N.am      4 UNK        -0.4209 
     25 C          23.9105   -0.5648   -4.8331 C.2       3 UNK         0.4942 
     26 O          23.8021    0.1923   -5.7972 O.2       3 UNK        -0.5208 
     27 CA         23.1911   -0.2184   -3.5171 C.3       3 UNK         0.0250 
     28 CB         21.8655   -0.9865   -3.4089 C.3       3 UNK        -0.1990 
     29 N          24.0186   -0.4814   -2.3353 N.am      3 UNK        -0.4232 
     30 C          25.1592    0.1712   -2.0633 C.2       2 UNK         0.4993 
     31 O          25.5824    1.1090   -2.7388 O.2       2 UNK        -0.5286 
     32 CA         26.0045   -0.3399   -0.8816 C.3       2 UNK         0.0209 
     33 CB         25.6200    0.3987    0.4094 C.3       2 UNK        -0.1931 
     34 N          25.9074   -1.7873   -0.6624 N.am      2 UNK        -0.4546 
     35 C          26.1765   -2.7359   -1.5719 C.2       1 UNK         0.5154 
     36 O          26.5911   -2.4836   -2.7048 O.2       1 UNK        -0.5181 
     37 C          27.9684    1.6067   -5.4985 C.2       5 UNK         0.5014 
     38 O          28.7506    2.1744   -6.2583 O.2       5 UNK        -0.5248 
     39 N          26.7418    2.0692   -5.2160 N.am      6 UNK        -0.4434 
     40 CA         26.1516    3.2617   -5.8240 C.3       6 UNK         0.0363 
     41 CB         24.8617    3.6341   -5.0756 C.3       6 UNK        -0.1936 
     42 C          25.8819    3.0967   -7.3302 C.2       6 UNK         0.5081 
     43 O          26.1291    4.0326   -8.0914 O.2       6 UNK        -0.5248 
     44 N          25.3730    1.9239   -7.7329 N.am      7 UNK        -0.4718 
     45 CA         25.0313    1.6080   -9.1216 C.3       7 UNK         0.0273 
     46 CB         24.1227    0.3690   -9.1582 C.3       7 UNK        -0.1935 
     47 C          26.2552    1.4010  -10.0303 C.2       7 UNK         0.5018 
     48 O          26.2384    1.8700  -11.1693 O.2       7 UNK        -0.5186 
     49 N          27.2750    0.6912   -9.5328 N.am      8 UNK        -0.4240 
     50 CA         28.4557    0.2782  -10.2876 C.3       8 UNK         0.0235 
     51 CB         28.2944   -1.1964  -10.7053 C.3       8 UNK        -0.2000 
     52 C          29.7157    0.5239   -9.4483 C.2       8 UNK         0.4941 
     53 O          30.3750   -0.4244   -9.0225 O.2       8 UNK        -0.5273 
     54 N          30.0448    1.8065   -9.2461 N.am      9 UNK        -0.4262 
     55 CA         31.1988    2.2725   -8.4642 C.3       9 UNK         0.0264 
     56 CB         31.0768    3.7922   -8.2592 C.3       9 UNK        -0.1955 
     57 C          32.5768    1.9269   -9.0636 C.2       9 UNK         0.5031 
     58 O          33.5825    2.0525   -8.3626 O.2       9 UNK        -0.5390 
     59 N          32.6105    1.5082  -10.3374 N.am      10 UNK        -0.4204 
     60 CA         33.8088    1.1842  -11.1190 C.3       10 UNK         0.0237 
     61 CB         33.3838    0.7857  -12.5421 C.3       10 UNK        -0.1985 
     62 C          34.7223    0.1024  -10.5113 C.2       10 UNK         0.4970 
     63 O          35.9190    0.1098  -10.8035 O.2       10 UNK        -0.4914 
     64 N          34.1662   -0.7916   -9.6821 N.am      11 UNK        -0.4285 
     65 CA         34.9317   -1.7790   -8.9055 C.3       11 UNK         0.1007 
     66 C          35.7156   -1.1922   -7.6925 C.2       11 UNK         0.5703 
     67 N          35.5138    0.0616   -7.3011 N.am      11 UNK        -0.7361 
     68 O          36.5374   -1.8897   -7.1025 O.2       11 UNK        -0.4986 
     69 C69        34.0680   -3.0095   -8.5208 C.3       12 UNK        -0.0947 
     70 S70        32.6549   -2.6209   -7.4336 S.3       12 UNK        -0.2240 
     71 C71        33.2410   -3.3016   -5.8526 C.3       12 UNK         0.0194 
     72 H72        21.3075   -3.8910   -2.0538 H         1 UNK         0.0906 
     73 H73        22.2658   -5.1965   -2.7513 H         1 UNK         0.0906 
     74 H74        21.6649   -5.3244   -1.0929 H         1 UNK         0.0906 
     75 H75        24.4562   -5.4283   -2.1329 H         1 UNK         0.3140 
     76 H76        25.8811   -4.2377   -0.0756 H         1 UNK         0.1085 
     77 H77        26.6771   -5.4430   -2.7509 H         1 UNK         0.0836 
     78 H78        26.6747   -6.2039   -1.1962 H         1 UNK         0.0836 
     79 H79        28.3474   -4.4141   -3.8261 H         1 UNK         0.0731 
     80 H80        29.4648   -5.7292   -3.5518 H         1 UNK         0.0731 
     81 H81        31.2062   -4.9058   -5.0093 H         1 UNK         0.1312 
     82 H82        33.0244   -1.0925   -4.2766 H         1 UNK         0.1406 
     83 H83        29.6233   -2.3213   -1.9772 H         1 UNK         0.1631 
     84 H84        32.3848    0.0358   -2.0751 H         1 UNK         0.0717 
     85 H85        30.8525   -0.3352   -1.3270 H         1 UNK         0.0717 
     86 H86        28.7174   -0.3849   -2.7815 H         1 UNK         0.0934 
     87 H87        28.2094    1.2644   -2.8658 H         1 UNK         0.0934 
     88 H88        29.2235   -0.1262   -5.3943 H         1 UNK         0.0739 
     89 H89        26.9731   -1.1277   -4.0552 H         1 UNK         0.3093 
     90 H90        24.9521   -1.9472   -6.8795 H         1 UNK         0.0818 
     91 H91        26.5386   -3.8577   -6.6750 H         1 UNK         0.0819 
     92 H92        26.4398   -3.7700   -4.9246 H         1 UNK         0.0819 
     93 H93        25.0142   -4.1879   -5.8676 H         1 UNK         0.0819 
     94 H94        24.7737   -2.1978   -3.9823 H         1 UNK         0.3041 
     95 H95        22.9656    0.8502   -3.5333 H         1 UNK         0.0784 
     96 H96        21.1992   -0.7264   -4.2327 H         1 UNK         0.0793 
     97 H97        22.0205   -2.0643   -3.4466 H         1 UNK         0.0793 
     98 H98        21.3421   -0.7523   -2.4817 H         1 UNK         0.0793 
     99 H99        23.7372   -1.2421   -1.7239 H         1 UNK         0.3024 
    100 H100       27.0477   -0.1126   -1.1032 H         1 UNK         0.1171 
    101 H101       26.2752    0.1223    1.2357 H         1 UNK         0.0786 
    102 H102       25.7028    1.4790    0.2805 H         1 UNK         0.0786 
    103 H103       24.5929    0.1831    0.7072 H         1 UNK         0.0786 
    104 H104       25.4953   -2.0771    0.2137 H         1 UNK         0.2977 
    105 H105       26.1885    1.5891   -4.5102 H         1 UNK         0.3127 
    106 H106       26.8620    4.0825   -5.7035 H         1 UNK         0.0770 
    107 H107       24.1132    2.8439   -5.1413 H         1 UNK         0.0814 
    108 H108       24.4179    4.5401   -5.4903 H         1 UNK         0.0814 
    109 H109       25.0565    3.8213   -4.0194 H         1 UNK         0.0814 
    110 H110       25.1443    1.2253   -7.0334 H         1 UNK         0.2983 
    111 H111       24.4641    2.4499   -9.5251 H         1 UNK         0.0947 
    112 H112       24.6296   -0.5128   -8.7662 H         1 UNK         0.0806 
    113 H113       23.8144    0.1409  -10.1794 H         1 UNK         0.0806 
    114 H114       23.2164    0.5231   -8.5723 H         1 UNK         0.0806 
    115 H115       27.2104    0.3184   -8.5847 H         1 UNK         0.3000 
    116 H116       28.5593    0.8760  -11.1956 H         1 UNK         0.0850 
    117 H117       29.1683   -1.5457  -11.2566 H         1 UNK         0.0810 
    118 H118       27.4267   -1.3324  -11.3509 H         1 UNK         0.0810 
    119 H119       28.1713   -1.8469   -9.8380 H         1 UNK         0.0810 
    120 H120       29.4294    2.5213   -9.6079 H         1 UNK         0.3040 
    121 H121       31.1506    1.7894   -7.4860 H         1 UNK         0.0766 
    122 H122       30.1455    4.0508   -7.7546 H         1 UNK         0.0812 
    123 H123       31.1090    4.3322   -9.2062 H         1 UNK         0.0812 
    124 H124       31.8915    4.1699   -7.6397 H         1 UNK         0.0812 
    125 H125       31.7275    1.4335  -10.8197 H         1 UNK         0.3205 
    126 H126       34.4023    2.0984  -11.1838 H         1 UNK         0.0754 
    127 H127       34.2533    0.5643  -13.1630 H         1 UNK         0.0769 
    128 H128       32.8355    1.5894  -13.0342 H         1 UNK         0.0769 
    129 H129       32.7507   -0.1027  -12.5397 H         1 UNK         0.0769 
    130 H130       33.1799   -0.7268   -9.4713 H         1 UNK         0.2981 
    131 H131       35.7067   -2.1628   -9.5717 H         1 UNK         0.0541 
    132 H132       36.0384    0.4204   -6.5200 H         1 UNK         0.3459 
    133 H133       34.8375    0.6583   -7.7673 H         1 UNK         0.3459 
    134 H134       33.6676   -3.4665   -9.4269 H         1 UNK         0.0612 
    135 H135       34.6870   -3.7806   -8.0589 H         1 UNK         0.0612 
    136 H136       33.4134   -4.3736   -5.9605 H         1 UNK         0.0624 
    137 H137       34.2028   -2.8555   -5.5955 H         1 UNK         0.0624 
@<TRIPOS>BOND
     1    1    2 1    
     2    1   72 1    
     3    1   73 1    
     4    1   74 1    
     5    2    3 2    
     6    2    4 am   BACKBONE|DICT|INTERRES
     7    4    5 1    
     8    4   75 1    
     9    5    6 1    
    10    5   35 1    
    11    5   76 1    
    12    6    7 1    
    13    6   77 1    
    14    6   78 1    
    15    7    8 1    
    16    8    9 1    
    17    8   79 1    
    18    8   80 1    
    19    9   10 ar   
    20    9   14 ar   
    21   10   11 ar   
    22   10   81 1    
    23   11   12 ar   
    24   11   71 1    
    25   12   13 ar   
    26   12   82 1    
    27   13   14 ar   
    28   13   15 1    
    29   14   83 1    
    30   15   16 1    
    31   15   84 1    
    32   15   85 1    
    33   16   17 1    
    34   17   18 1    
    35   17   86 1    
    36   17   87 1    
    37   18   19 1    
    38   18   37 1    
    39   18   88 1    
    40   19   20 am   BACKBONE|DICT|INTERRES
    41   19   89 1    
    42   20   21 2    
    43   20   22 1    
    44   22   23 1    
    45   22   24 1    
    46   22   90 1    
    47   23   91 1    
    48   23   92 1    
    49   23   93 1    
    50   24   25 am   BACKBONE|DICT|INTERRES
    51   24   94 1    
    52   25   26 2    
    53   25   27 1    
    54   27   28 1    
    55   27   29 1    
    56   27   95 1    
    57   28   96 1    
    58   28   97 1    
    59   28   98 1    
    60   29   30 am   BACKBONE|DICT|INTERRES
    61   29   99 1    
    62   30   31 2    
    63   30   32 1    
    64   32   33 1    
    65   32   34 1    
    66   32  100 1    
    67   33  101 1    
    68   33  102 1    
    69   33  103 1    
    70   34   35 am   BACKBONE|DICT|INTERRES
    71   34  104 1    
    72   35   36 2    
    73   37   38 2    
    74   37   39 am   BACKBONE|DICT|INTERRES
    75   39   40 1    
    76   39  105 1    
    77   40   41 1    
    78   40   42 1    
    79   40  106 1    
    80   41  107 1    
    81   41  108 1    
    82   41  109 1    
    83   42   43 2    
    84   42   44 am   BACKBONE|DICT|INTERRES
    85   44   45 1    
    86   44  110 1    
    87   45   46 1    
    88   45   47 1    
    89   45  111 1    
    90   46  112 1    
    91   46  113 1    
    92   46  114 1    
    93   47   48 2    
    94   47   49 am   BACKBONE|DICT|INTERRES
    95   49   50 1    
    96   49  115 1    
    97   50   51 1    
    98   50   52 1    
    99   50  116 1    
   100   51  117 1    
   101   51  118 1    
   102   51  119 1    
   103   52   53 2    
   104   52   54 am   BACKBONE|DICT|INTERRES
   105   54   55 1    
   106   54  120 1    
   107   55   56 1    
   108   55   57 1    
   109   55  121 1    
   110   56  122 1    
   111   56  123 1    
   112   56  124 1    
   113   57   58 2    
   114   57   59 am   BACKBONE|DICT|INTERRES
   115   59   60 1    
   116   59  125 1    
   117   60   61 1    
   118   60   62 1    
   119   60  126 1    
   120   61  127 1    
   121   61  128 1    
   122   61  129 1    
   123   62   63 2    
   124   62   64 am   BACKBONE|DICT|INTERRES
   125   64   65 1    
   126   64  130 1    
   127   65   66 1    
   128   65   69 1    
   129   65  131 1    
   130   66   67 am   BACKBONE|DICT|INTERRES
   131   66   68 2    
   132   67  132 1    
   133   67  133 1    
   134   69   70 1    
   135   69  134 1    
   136   69  135 1    
   137   70   71 1    
   138   71  136 1    
   139   71  137 1    
@<TRIPOS>SUBSTRUCTURE
     1 UNK         1 GROUP             0       ****    0 ROOT    
