@<TRIPOS>MOLECULE
3R137
137   139    1
SMALL
USER_CHARGES


@<TRIPOS>ATOM
      1 CA         27.8049   -6.1627   -4.3965 C.3       0 UNK        -0.2020 
      2 C          27.1624   -5.3047   -3.3167 C.2       0 UNK         0.4855 
      3 O          26.0084   -5.5402   -2.9577 O.2       0 UNK        -0.5197 
      4 N          27.9045   -4.3245   -2.7868 N.am      1 UNK        -0.4892 
      5 CA         27.4521   -3.4158   -1.7272 C.3       1 UNK         0.0835 
      6 C6         28.6321   -2.7540   -0.9638 C.3       12 UNK        -0.0855 
      7 S7         29.9075   -3.9531   -0.4248 S.3       12 UNK        -0.2931 
      8 C8         31.4774   -3.0960   -0.8035 C.3       12 UNK         0.0378 
      9 C9         31.5181   -2.5306   -2.2176 C.ar      12 UNK        -0.0802 
     10 C10        31.6408   -1.1526   -2.4157 C.ar      12 UNK        -0.0944 
     11 C11        31.6105   -0.6071   -3.7016 C.ar      12 UNK        -0.0787 
     12 C12        31.4399   -1.4636   -4.7970 C.ar      12 UNK        -0.0862 
     13 C13        31.3368   -2.8481   -4.6159 C.ar      12 UNK        -0.0733 
     14 C14        31.3925   -3.3750   -3.3228 C.ar      12 UNK        -0.0832 
     15 C15        31.1672   -3.7932   -5.8011 C.3       12 UNK         0.0240 
     16 S16        29.9769   -3.2182   -7.0571 S.3       12 UNK        -0.2522 
     17 C17        28.4652   -2.8960   -6.0863 C.3       12 UNK        -0.0967 
     18 CA         27.5898   -1.8106   -6.7529 C.3       5 UNK         0.0660 
     19 N          26.1783   -1.9363   -6.3801 N.am      5 UNK        -0.4015 
     20 C          25.1777   -1.4702   -7.1382 C.2       4 UNK         0.4946 
     21 O          25.3506   -0.8389   -8.1826 O.2       4 UNK        -0.5353 
     22 CA         23.7443   -1.7593   -6.6623 C.3       4 UNK         0.0277 
     23 CB         23.4524   -3.2697   -6.6969 C.3       4 UNK        -0.1981 
     24 N          23.3844   -1.2232   -5.3448 N.am      4 UNK        -0.4209 
     25 C          23.5467    0.0411   -4.9280 C.2       3 UNK         0.4942 
     26 O          24.2177    0.8820   -5.5185 O.2       3 UNK        -0.5208 
     27 CA         22.8256    0.4563   -3.6341 C.3       3 UNK         0.0250 
     28 CB         21.4801    1.1146   -3.9786 C.3       3 UNK        -0.1990 
     29 N          22.5865   -0.6699   -2.7267 N.am      3 UNK        -0.4232 
     30 C          23.4627   -1.2261   -1.8786 C.2       2 UNK         0.4993 
     31 O          23.1635   -2.2142   -1.2070 O.2       2 UNK        -0.5286 
     32 CA         24.8545   -0.5899   -1.6835 C.3       2 UNK         0.0209 
     33 CB         24.8220    0.4398   -0.5417 C.3       2 UNK        -0.1931 
     34 N          25.8371   -1.6207   -1.3615 N.am      2 UNK        -0.4546 
     35 C          26.4929   -2.3391   -2.2793 C.2       1 UNK         0.5154 
     36 O          26.3892   -2.1436   -3.4963 O.2       1 UNK        -0.5181 
     37 C          28.1201   -0.3836   -6.5129 C.2       5 UNK         0.5014 
     38 O          28.9837    0.0731   -7.2631 O.2       5 UNK        -0.5248 
     39 N          27.5592    0.3149   -5.5150 N.am      6 UNK        -0.4434 
     40 CA         27.8294    1.7276   -5.2438 C.3       6 UNK         0.0363 
     41 CB         27.2075    2.1240   -3.8952 C.3       6 UNK        -0.1936 
     42 C          27.3408    2.6473   -6.3779 C.2       6 UNK         0.5081 
     43 O          28.0677    3.5606   -6.7669 O.2       6 UNK        -0.5248 
     44 N          26.1419    2.3713   -6.9113 N.am      7 UNK        -0.4718 
     45 CA         25.5585    3.0593   -8.0658 C.3       7 UNK         0.0273 
     46 CB         24.0703    2.6955   -8.1892 C.3       7 UNK        -0.1935 
     47 C          26.3018    2.7532   -9.3755 C.2       7 UNK         0.5018 
     48 O          26.4870    3.6623  -10.1857 O.2       7 UNK        -0.5186 
     49 N          26.7340    1.4947   -9.5527 N.am      8 UNK        -0.4240 
     50 CA         27.5852    1.0659  -10.6690 C.3       8 UNK         0.0235 
     51 CB         27.6520   -0.4693  -10.7059 C.3       8 UNK        -0.2000 
     52 C          29.0058    1.6584  -10.6068 C.2       8 UNK         0.4941 
     53 O          29.6288    1.8356  -11.6541 O.2       8 UNK        -0.5273 
     54 N          29.4818    1.9420   -9.3852 N.am      9 UNK        -0.4262 
     55 CA         30.7903    2.4941   -9.0241 C.3       9 UNK         0.0264 
     56 CB         30.9783    3.9123   -9.6025 C.3       9 UNK        -0.1955 
     57 C          31.9614    1.5489   -9.3501 C.2       9 UNK         0.5031 
     58 O          33.0848    2.0125   -9.5563 O.2       9 UNK        -0.5390 
     59 N          31.7048    0.2335   -9.3474 N.am      10 UNK        -0.4204 
     60 CA         32.6916   -0.8224   -9.6014 C.3       10 UNK         0.0237 
     61 CB         31.9819   -2.0186  -10.2624 C.3       10 UNK        -0.1985 
     62 C          33.4504   -1.2062   -8.3147 C.2       10 UNK         0.4970 
     63 O          33.6119   -2.3902   -8.0174 O.2       10 UNK        -0.4914 
     64 N          33.8755   -0.1878   -7.5607 N.am      11 UNK        -0.4285 
     65 CA         34.4436   -0.2973   -6.2093 C.3       11 UNK         0.1007 
     66 C          35.9569   -0.6547   -6.1670 C.2       11 UNK         0.5703 
     67 N          36.6550   -0.7365   -7.2937 N.am      11 UNK        -0.7361 
     68 O          36.5079   -0.8712   -5.0903 O.2       11 UNK        -0.4986 
     69 C69        34.1307    0.9673   -5.3606 C.3       12 UNK        -0.0947 
     70 S70        32.3811    1.4979   -5.4447 S.3       12 UNK        -0.2240 
     71 C71        31.7141    0.9107   -3.8517 C.3       12 UNK         0.0194 
     72 H72        27.2124   -6.1246   -5.3102 H         1 UNK         0.0906 
     73 H73        27.8548   -7.2005   -4.0682 H         1 UNK         0.0906 
     74 H74        28.8165   -5.8346   -4.6319 H         1 UNK         0.0906 
     75 H75        28.8466   -4.1673   -3.1107 H         1 UNK         0.3140 
     76 H76        26.8847   -4.0110   -1.0077 H         1 UNK         0.1085 
     77 H77        28.2677   -2.2462   -0.0690 H         1 UNK         0.0836 
     78 H78        29.0792   -1.9719   -1.5771 H         1 UNK         0.0836 
     79 H79        31.6265   -2.3053   -0.0665 H         1 UNK         0.0731 
     80 H80        32.3045   -3.7953   -0.6732 H         1 UNK         0.0731 
     81 H81        31.7389   -0.4965   -1.5613 H         1 UNK         0.1312 
     82 H82        31.3855   -1.0576   -5.7976 H         1 UNK         0.1406 
     83 H83        31.3124   -4.4426   -3.1670 H         1 UNK         0.1631 
     84 H84        30.8549   -4.7823   -5.4646 H         1 UNK         0.0717 
     85 H85        32.1381   -3.9262   -6.2792 H         1 UNK         0.0717 
     86 H86        27.9160   -3.8358   -6.0407 H         1 UNK         0.0934 
     87 H87        28.7001   -2.6291   -5.0551 H         1 UNK         0.0934 
     88 H88        27.6371   -1.9816   -7.8302 H         1 UNK         0.0739 
     89 H89        25.9803   -2.3453   -5.4719 H         1 UNK         0.3093 
     90 H90        23.0776   -1.2791   -7.3816 H         1 UNK         0.0818 
     91 H91        23.7208   -3.6991   -7.6634 H         1 UNK         0.0819 
     92 H92        24.0122   -3.8105   -5.9325 H         1 UNK         0.0819 
     93 H93        22.3927   -3.4724   -6.5408 H         1 UNK         0.0819 
     94 H94        22.8427   -1.8372   -4.7547 H         1 UNK         0.3041 
     95 H95        23.4316    1.2146   -3.1359 H         1 UNK         0.0784 
     96 H96        21.6232    1.9723   -4.6380 H         1 UNK         0.0793 
     97 H97        20.8061    0.4233   -4.4863 H         1 UNK         0.0793 
     98 H98        20.9758    1.4787   -3.0831 H         1 UNK         0.0793 
     99 H99        21.6663   -1.0830   -2.7803 H         1 UNK         0.3024 
    100 H100       25.1839   -0.0870   -2.5925 H         1 UNK         0.1171 
    101 H101       24.1161    1.2431   -0.7558 H         1 UNK         0.0786 
    102 H102       24.5201   -0.0133    0.4036 H         1 UNK         0.0786 
    103 H103       25.7994    0.9004   -0.3957 H         1 UNK         0.0786 
    104 H104       25.9301   -1.8613   -0.3852 H         1 UNK         0.2977 
    105 H105       26.8511   -0.1383   -4.9543 H         1 UNK         0.3127 
    106 H106       28.9118    1.8490   -5.1701 H         1 UNK         0.0770 
    107 H107       26.1215    2.0284   -3.9048 H         1 UNK         0.0814 
    108 H108       27.4396    3.1618   -3.6525 H         1 UNK         0.0814 
    109 H109       27.5934    1.5074   -3.0831 H         1 UNK         0.0814 
    110 H110       25.5666    1.6488   -6.4804 H         1 UNK         0.2983 
    111 H111       25.6330    4.1344   -7.8883 H         1 UNK         0.0947 
    112 H112       23.9277    1.6233   -8.3311 H         1 UNK         0.0806 
    113 H113       23.6116    3.2032   -9.0387 H         1 UNK         0.0806 
    114 H114       23.5164    2.9893   -7.2974 H         1 UNK         0.0806 
    115 H115       26.4632    0.7871   -8.8769 H         1 UNK         0.3000 
    116 H116       27.1222    1.4115  -11.5958 H         1 UNK         0.0850 
    117 H117       28.2106   -0.8132  -11.5775 H         1 UNK         0.0810 
    118 H118       26.6568   -0.9111  -10.7623 H         1 UNK         0.0810 
    119 H119       28.1494   -0.8717   -9.8239 H         1 UNK         0.0810 
    120 H120       28.9129    1.6633   -8.5925 H         1 UNK         0.3040 
    121 H121       30.7767    2.5853   -7.9369 H         1 UNK         0.0766 
    122 H122       31.0734    3.8983  -10.6885 H         1 UNK         0.0812 
    123 H123       31.8789    4.3807   -9.2038 H         1 UNK         0.0812 
    124 H124       30.1378    4.5573   -9.3456 H         1 UNK         0.0812 
    125 H125       30.7772   -0.0640   -9.0737 H         1 UNK         0.3205 
    126 H126       33.4366   -0.4530  -10.3092 H         1 UNK         0.0754 
    127 H127       32.6914   -2.8093  -10.5099 H         1 UNK         0.0769 
    128 H128       31.4920   -1.7235  -11.1906 H         1 UNK         0.0769 
    129 H129       31.2249   -2.4511   -9.6089 H         1 UNK         0.0769 
    130 H130       33.7313    0.7520   -7.9076 H         1 UNK         0.2981 
    131 H131       33.9528   -1.1390   -5.7206 H         1 UNK         0.0541 
    132 H132       37.6338   -0.9734   -7.2535 H         1 UNK         0.3459 
    133 H133       36.2106   -0.5669   -8.1814 H         1 UNK         0.3459 
    134 H134       34.7390    1.8066   -5.7022 H         1 UNK         0.0612 
    135 H135       34.4031    0.8019   -4.3167 H         1 UNK         0.0612 
    136 H136       32.3294    1.3258   -3.0519 H         1 UNK         0.0624 
    137 H137       30.7177    1.3323   -3.7203 H         1 UNK         0.0624 
@<TRIPOS>BOND
     1    1    2 1    
     2    1   72 1    
     3    1   73 1    
     4    1   74 1    
     5    2    3 2    
     6    2    4 am   BACKBONE|DICT|INTERRES
     7    4    5 1    
     8    4   75 1    
     9    5    6 1    
    10    5   35 1    
    11    5   76 1    
    12    6    7 1    
    13    6   77 1    
    14    6   78 1    
    15    7    8 1    
    16    8    9 1    
    17    8   79 1    
    18    8   80 1    
    19    9   10 ar   
    20    9   14 ar   
    21   10   11 ar   
    22   10   81 1    
    23   11   12 ar   
    24   11   71 1    
    25   12   13 ar   
    26   12   82 1    
    27   13   14 ar   
    28   13   15 1    
    29   14   83 1    
    30   15   16 1    
    31   15   84 1    
    32   15   85 1    
    33   16   17 1    
    34   17   18 1    
    35   17   86 1    
    36   17   87 1    
    37   18   19 1    
    38   18   37 1    
    39   18   88 1    
    40   19   20 am   BACKBONE|DICT|INTERRES
    41   19   89 1    
    42   20   21 2    
    43   20   22 1    
    44   22   23 1    
    45   22   24 1    
    46   22   90 1    
    47   23   91 1    
    48   23   92 1    
    49   23   93 1    
    50   24   25 am   BACKBONE|DICT|INTERRES
    51   24   94 1    
    52   25   26 2    
    53   25   27 1    
    54   27   28 1    
    55   27   29 1    
    56   27   95 1    
    57   28   96 1    
    58   28   97 1    
    59   28   98 1    
    60   29   30 am   BACKBONE|DICT|INTERRES
    61   29   99 1    
    62   30   31 2    
    63   30   32 1    
    64   32   33 1    
    65   32   34 1    
    66   32  100 1    
    67   33  101 1    
    68   33  102 1    
    69   33  103 1    
    70   34   35 am   BACKBONE|DICT|INTERRES
    71   34  104 1    
    72   35   36 2    
    73   37   38 2    
    74   37   39 am   BACKBONE|DICT|INTERRES
    75   39   40 1    
    76   39  105 1    
    77   40   41 1    
    78   40   42 1    
    79   40  106 1    
    80   41  107 1    
    81   41  108 1    
    82   41  109 1    
    83   42   43 2    
    84   42   44 am   BACKBONE|DICT|INTERRES
    85   44   45 1    
    86   44  110 1    
    87   45   46 1    
    88   45   47 1    
    89   45  111 1    
    90   46  112 1    
    91   46  113 1    
    92   46  114 1    
    93   47   48 2    
    94   47   49 am   BACKBONE|DICT|INTERRES
    95   49   50 1    
    96   49  115 1    
    97   50   51 1    
    98   50   52 1    
    99   50  116 1    
   100   51  117 1    
   101   51  118 1    
   102   51  119 1    
   103   52   53 2    
   104   52   54 am   BACKBONE|DICT|INTERRES
   105   54   55 1    
   106   54  120 1    
   107   55   56 1    
   108   55   57 1    
   109   55  121 1    
   110   56  122 1    
   111   56  123 1    
   112   56  124 1    
   113   57   58 2    
   114   57   59 am   BACKBONE|DICT|INTERRES
   115   59   60 1    
   116   59  125 1    
   117   60   61 1    
   118   60   62 1    
   119   60  126 1    
   120   61  127 1    
   121   61  128 1    
   122   61  129 1    
   123   62   63 2    
   124   62   64 am   BACKBONE|DICT|INTERRES
   125   64   65 1    
   126   64  130 1    
   127   65   66 1    
   128   65   69 1    
   129   65  131 1    
   130   66   67 am   BACKBONE|DICT|INTERRES
   131   66   68 2    
   132   67  132 1    
   133   67  133 1    
   134   69   70 1    
   135   69  134 1    
   136   69  135 1    
   137   70   71 1    
   138   71  136 1    
   139   71  137 1    
@<TRIPOS>SUBSTRUCTURE
     1 UNK         1 GROUP             0       ****    0 ROOT    
