@<TRIPOS>MOLECULE
3R137
137   139    1
SMALL
USER_CHARGES


@<TRIPOS>ATOM
      1 CA         28.3593   -1.2076    3.6468 C.3       0 UNK        -0.2020 
      2 C          28.4149   -0.9988    2.1409 C.2       0 UNK         0.4855 
      3 O          28.9769   -0.0043    1.6821 O.2       0 UNK        -0.5197 
      4 N          27.8392   -1.9306    1.3688 N.am      1 UNK        -0.4892 
      5 CA         27.7714   -1.8791   -0.0975 C.3       1 UNK         0.0835 
      6 C6         27.3867   -3.2655   -0.6781 C.3       12 UNK        -0.0855 
      7 S7         27.7069   -3.4024   -2.4676 S.3       12 UNK        -0.2931 
      8 C8         29.3128   -4.2582   -2.4933 C.3       12 UNK         0.0378 
      9 C9         29.9981   -4.0387   -3.8318 C.ar      12 UNK        -0.0802 
     10 C10        31.1020   -3.1873   -3.9281 C.ar      12 UNK        -0.0944 
     11 C11        31.6975   -2.9389   -5.1669 C.ar      12 UNK        -0.0787 
     12 C12        31.1573   -3.5243   -6.3160 C.ar      12 UNK        -0.0862 
     13 C13        30.0402   -4.3647   -6.2411 C.ar      12 UNK        -0.0733 
     14 C14        29.4986   -4.6546   -4.9828 C.ar      12 UNK        -0.0832 
     15 C15        29.4643   -4.9231   -7.5458 C.3       12 UNK         0.0240 
     16 S16        27.7576   -5.5951   -7.5002 S.3       12 UNK        -0.2522 
     17 C17        26.7052   -4.2841   -6.7770 C.3       12 UNK        -0.0967 
     18 CA         26.4443   -3.0494   -7.6807 C.3       5 UNK         0.0660 
     19 N          25.1478   -2.4380   -7.3669 N.am      5 UNK        -0.4015 
     20 C          24.6310   -1.3305   -7.9200 C.2       4 UNK         0.4946 
     21 O          25.1469   -0.7207   -8.8554 O.2       4 UNK        -0.5353 
     22 CA         23.3319   -0.7812   -7.3028 C.3       4 UNK         0.0277 
     23 CB         22.1169   -1.2301   -8.1301 C.3       4 UNK        -0.1981 
     24 N          23.1236   -1.1418   -5.8949 N.am      4 UNK        -0.4209 
     25 C          23.9349   -0.8195   -4.8770 C.2       3 UNK         0.4942 
     26 O          25.0002   -0.2087   -5.0053 O.2       3 UNK        -0.5208 
     27 CA         23.4918   -1.3166   -3.4972 C.3       3 UNK         0.0250 
     28 CB         23.7763   -2.8223   -3.3411 C.3       3 UNK        -0.1990 
     29 N          24.1970   -0.5823   -2.4510 N.am      3 UNK        -0.4232 
     30 C          23.7033   -0.2960   -1.2411 C.2       2 UNK         0.4993 
     31 O          22.5668   -0.6056   -0.8769 O.2       2 UNK        -0.5286 
     32 CA         24.6613    0.4029   -0.2577 C.3       2 UNK         0.0209 
     33 CB         23.9499    0.9083    1.0120 C.3       2 UNK        -0.1931 
     34 N          25.7326   -0.5151    0.1342 N.am      2 UNK        -0.4546 
     35 C          26.8257   -0.7641   -0.5999 C.2       1 UNK         0.5154 
     36 O          27.0897   -0.1526   -1.6356 O.2       1 UNK        -0.5181 
     37 C          27.5868   -2.0221   -7.5605 C.2       5 UNK         0.5014 
     38 O          28.3056   -1.7901   -8.5330 O.2       5 UNK        -0.5248 
     39 N          27.6954   -1.3936   -6.3811 N.am      6 UNK        -0.4434 
     40 CA         28.7114   -0.3889   -6.0787 C.3       6 UNK         0.0363 
     41 CB         28.7288   -0.1098   -4.5700 C.3       6 UNK        -0.1936 
     42 C          28.5104    0.9098   -6.8703 C.2       6 UNK         0.5081 
     43 O          29.4942    1.5122   -7.2960 O.2       6 UNK        -0.5248 
     44 N          27.2468    1.3033   -7.0877 N.am      7 UNK        -0.4718 
     45 CA         26.8807    2.4683   -7.8986 C.3       7 UNK         0.0273 
     46 CB         25.3735    2.7400   -7.7749 C.3       7 UNK        -0.1935 
     47 C          27.2921    2.3164   -9.3738 C.2       7 UNK         0.5018 
     48 O          27.7980    3.2744   -9.9592 O.2       7 UNK        -0.5186 
     49 N          27.0911    1.1162   -9.9361 N.am      8 UNK        -0.4240 
     50 CA         27.5134    0.7553  -11.2889 C.3       8 UNK         0.0235 
     51 CB         26.7950   -0.5313  -11.7273 C.3       8 UNK        -0.2000 
     52 C          29.0374    0.5935  -11.4065 C.2       8 UNK         0.4941 
     53 O          29.6215    1.0908  -12.3702 O.2       8 UNK        -0.5273 
     54 N          29.6517   -0.1054  -10.4410 N.am      9 UNK        -0.4262 
     55 CA         31.0854   -0.4057  -10.4288 C.3       9 UNK         0.0264 
     56 CB         31.3598   -1.5355   -9.4251 C.3       9 UNK        -0.1955 
     57 C          31.9812    0.7996  -10.1052 C.2       9 UNK         0.5031 
     58 O          33.1442    0.7947  -10.5104 O.2       9 UNK        -0.5390 
     59 N          31.4699    1.7647   -9.3268 N.am      10 UNK        -0.4204 
     60 CA         32.1420    2.9460   -8.7596 C.3       10 UNK         0.0237 
     61 CB         32.7519    3.8467   -9.8520 C.3       10 UNK        -0.1985 
     62 C          33.1672    2.6210   -7.6540 C.2       10 UNK         0.4970 
     63 O          33.3294    3.4288   -6.7387 O.2       10 UNK        -0.4914 
     64 N          33.8116    1.4507   -7.7410 N.am      11 UNK        -0.4285 
     65 CA         34.7145    0.8471   -6.7463 C.3       11 UNK         0.1007 
     66 C          36.0904    1.5635   -6.5920 C.2       11 UNK         0.5703 
     67 N          36.4831    2.4463   -7.5030 N.am      11 UNK        -0.7361 
     68 O          36.8335    1.2923   -5.6514 O.2       11 UNK        -0.4986 
     69 C69        34.0269    0.5674   -5.3760 C.3       12 UNK        -0.0947 
     70 S70        32.4267   -0.3021   -5.5154 S.3       12 UNK        -0.2240 
     71 C71        32.9166   -2.0321   -5.2595 C.3       12 UNK         0.0194 
     72 H72        29.3681   -1.2606    4.0556 H         1 UNK         0.0906 
     73 H73        27.8371   -2.1262    3.9138 H         1 UNK         0.0906 
     74 H74        27.8427   -0.3739    4.1219 H         1 UNK         0.0906 
     75 H75        27.4034   -2.7318    1.8046 H         1 UNK         0.3140 
     76 H76        28.7723   -1.6282   -0.4573 H         1 UNK         0.1085 
     77 H77        27.9430   -4.0551   -0.1699 H         1 UNK         0.0836 
     78 H78        26.3325   -3.4845   -0.4967 H         1 UNK         0.0836 
     79 H79        29.9394   -3.8883   -1.6799 H         1 UNK         0.0731 
     80 H80        29.1645   -5.3245   -2.3167 H         1 UNK         0.0731 
     81 H81        31.4944   -2.7089   -3.0411 H         1 UNK         0.1312 
     82 H82        31.6065   -3.3171   -7.2765 H         1 UNK         0.1406 
     83 H83        28.6558   -5.3243   -4.8896 H         1 UNK         0.1631 
     84 H84        29.5030   -4.1551   -8.3184 H         1 UNK         0.0717 
     85 H85        30.1246   -5.7205   -7.8884 H         1 UNK         0.0717 
     86 H86        25.7558   -4.7847   -6.5796 H         1 UNK         0.0934 
     87 H87        27.0611   -3.9938   -5.7888 H         1 UNK         0.0934 
     88 H88        26.3933   -3.3747   -8.7218 H         1 UNK         0.0739 
     89 H89        24.6262   -2.8618   -6.6152 H         1 UNK         0.3093 
     90 H90        23.3883    0.3073   -7.3484 H         1 UNK         0.0818 
     91 H91        21.1982   -0.7637   -7.7739 H         1 UNK         0.0819 
     92 H92        22.2335   -0.9488   -9.1780 H         1 UNK         0.0819 
     93 H93        21.9812   -2.3118   -8.0970 H         1 UNK         0.0819 
     94 H94        22.2761   -1.6518   -5.6881 H         1 UNK         0.3041 
     95 H95        22.4181   -1.1371   -3.4064 H         1 UNK         0.0784 
     96 H96        23.2380   -3.4095   -4.0858 H         1 UNK         0.0793 
     97 H97        24.8383   -3.0436   -3.4532 H         1 UNK         0.0793 
     98 H98        23.4643   -3.1847   -2.3614 H         1 UNK         0.0793 
     99 H99        25.1392   -0.2865   -2.6886 H         1 UNK         0.3024 
    100 H100       25.0880    1.2693   -0.7692 H         1 UNK         0.1171 
    101 H101       24.6401    1.4416    1.6660 H         1 UNK         0.0786 
    102 H102       23.1454    1.6001    0.7585 H         1 UNK         0.0786 
    103 H103       23.5097    0.0911    1.5848 H         1 UNK         0.0786 
    104 H104       25.5805   -1.0638    0.9679 H         1 UNK         0.2977 
    105 H105       27.0210   -1.5840   -5.6532 H         1 UNK         0.3127 
    106 H106       29.6793   -0.8049   -6.3618 H         1 UNK         0.0770 
    107 H107       27.7746    0.2880   -4.2229 H         1 UNK         0.0814 
    108 H108       29.5002    0.6189   -4.3178 H         1 UNK         0.0814 
    109 H109       28.9431   -1.0146   -4.0015 H         1 UNK         0.0814 
    110 H110       26.4950    0.7544   -6.6908 H         1 UNK         0.2983 
    111 H111       27.4159    3.3299   -7.4932 H         1 UNK         0.0947 
    112 H112       25.1086    3.6753   -8.2696 H         1 UNK         0.0806 
    113 H113       25.0651    2.8246   -6.7326 H         1 UNK         0.0806 
    114 H114       24.7824    1.9521   -8.2404 H         1 UNK         0.0806 
    115 H115       26.6069    0.3982   -9.4015 H         1 UNK         0.3000 
    116 H116       27.2107    1.5583  -11.9646 H         1 UNK         0.0850 
    117 H117       25.7129   -0.3992  -11.7260 H         1 UNK         0.0810 
    118 H118       27.0272   -1.3686  -11.0675 H         1 UNK         0.0810 
    119 H119       27.0870   -0.8185  -12.7382 H         1 UNK         0.0810 
    120 H120       29.0902   -0.5363   -9.7082 H         1 UNK         0.3040 
    121 H121       31.3642   -0.7614  -11.4230 H         1 UNK         0.0766 
    122 H122       30.8009   -2.4357   -9.6802 H         1 UNK         0.0812 
    123 H123       31.0820   -1.2418   -8.4119 H         1 UNK         0.0812 
    124 H124       32.4173   -1.8030   -9.4107 H         1 UNK         0.0812 
    125 H125       30.5453    1.6016   -8.9343 H         1 UNK         0.3205 
    126 H126       31.3467    3.5156   -8.2759 H         1 UNK         0.0754 
    127 H127       33.5925    3.3704  -10.3568 H         1 UNK         0.0769 
    128 H128       33.1212    4.7788   -9.4224 H         1 UNK         0.0769 
    129 H129       32.0108    4.1087  -10.6072 H         1 UNK         0.0769 
    130 H130       33.6658    0.9126   -8.5874 H         1 UNK         0.2981 
    131 H131       34.9696   -0.1257   -7.1674 H         1 UNK         0.0541 
    132 H132       35.8882    2.6705   -8.2842 H         1 UNK         0.3459 
    133 H133       37.3792    2.8961   -7.4019 H         1 UNK         0.3459 
    134 H134       33.8464    1.5053   -4.8487 H         1 UNK         0.0612 
    135 H135       34.6849   -0.0150   -4.7290 H         1 UNK         0.0612 
    136 H136       33.5082   -2.1123   -4.3463 H         1 UNK         0.0624 
    137 H137       33.5634   -2.3484   -6.0792 H         1 UNK         0.0624 
@<TRIPOS>BOND
     1    1    2 1    
     2    1   72 1    
     3    1   73 1    
     4    1   74 1    
     5    2    3 2    
     6    2    4 am   BACKBONE|DICT|INTERRES
     7    4    5 1    
     8    4   75 1    
     9    5    6 1    
    10    5   35 1    
    11    5   76 1    
    12    6    7 1    
    13    6   77 1    
    14    6   78 1    
    15    7    8 1    
    16    8    9 1    
    17    8   79 1    
    18    8   80 1    
    19    9   10 ar   
    20    9   14 ar   
    21   10   11 ar   
    22   10   81 1    
    23   11   12 ar   
    24   11   71 1    
    25   12   13 ar   
    26   12   82 1    
    27   13   14 ar   
    28   13   15 1    
    29   14   83 1    
    30   15   16 1    
    31   15   84 1    
    32   15   85 1    
    33   16   17 1    
    34   17   18 1    
    35   17   86 1    
    36   17   87 1    
    37   18   19 1    
    38   18   37 1    
    39   18   88 1    
    40   19   20 am   BACKBONE|DICT|INTERRES
    41   19   89 1    
    42   20   21 2    
    43   20   22 1    
    44   22   23 1    
    45   22   24 1    
    46   22   90 1    
    47   23   91 1    
    48   23   92 1    
    49   23   93 1    
    50   24   25 am   BACKBONE|DICT|INTERRES
    51   24   94 1    
    52   25   26 2    
    53   25   27 1    
    54   27   28 1    
    55   27   29 1    
    56   27   95 1    
    57   28   96 1    
    58   28   97 1    
    59   28   98 1    
    60   29   30 am   BACKBONE|DICT|INTERRES
    61   29   99 1    
    62   30   31 2    
    63   30   32 1    
    64   32   33 1    
    65   32   34 1    
    66   32  100 1    
    67   33  101 1    
    68   33  102 1    
    69   33  103 1    
    70   34   35 am   BACKBONE|DICT|INTERRES
    71   34  104 1    
    72   35   36 2    
    73   37   38 2    
    74   37   39 am   BACKBONE|DICT|INTERRES
    75   39   40 1    
    76   39  105 1    
    77   40   41 1    
    78   40   42 1    
    79   40  106 1    
    80   41  107 1    
    81   41  108 1    
    82   41  109 1    
    83   42   43 2    
    84   42   44 am   BACKBONE|DICT|INTERRES
    85   44   45 1    
    86   44  110 1    
    87   45   46 1    
    88   45   47 1    
    89   45  111 1    
    90   46  112 1    
    91   46  113 1    
    92   46  114 1    
    93   47   48 2    
    94   47   49 am   BACKBONE|DICT|INTERRES
    95   49   50 1    
    96   49  115 1    
    97   50   51 1    
    98   50   52 1    
    99   50  116 1    
   100   51  117 1    
   101   51  118 1    
   102   51  119 1    
   103   52   53 2    
   104   52   54 am   BACKBONE|DICT|INTERRES
   105   54   55 1    
   106   54  120 1    
   107   55   56 1    
   108   55   57 1    
   109   55  121 1    
   110   56  122 1    
   111   56  123 1    
   112   56  124 1    
   113   57   58 2    
   114   57   59 am   BACKBONE|DICT|INTERRES
   115   59   60 1    
   116   59  125 1    
   117   60   61 1    
   118   60   62 1    
   119   60  126 1    
   120   61  127 1    
   121   61  128 1    
   122   61  129 1    
   123   62   63 2    
   124   62   64 am   BACKBONE|DICT|INTERRES
   125   64   65 1    
   126   64  130 1    
   127   65   66 1    
   128   65   69 1    
   129   65  131 1    
   130   66   67 am   BACKBONE|DICT|INTERRES
   131   66   68 2    
   132   67  132 1    
   133   67  133 1    
   134   69   70 1    
   135   69  134 1    
   136   69  135 1    
   137   70   71 1    
   138   71  136 1    
   139   71  137 1    
@<TRIPOS>SUBSTRUCTURE
     1 UNK         1 GROUP             0       ****    0 ROOT    
