@<TRIPOS>MOLECULE
3R137
137   139    1
SMALL
USER_CHARGES


@<TRIPOS>ATOM
      1 CA         29.3522   -1.7207    3.0626 C.3       0 UNK        -0.2020 
      2 C          28.9292   -1.9011    1.6124 C.2       0 UNK         0.4855 
      3 O          28.8869   -0.9266    0.8610 O.2       0 UNK        -0.5197 
      4 N          28.6266   -3.1413    1.2107 N.am      1 UNK        -0.4892 
      5 CA         28.1569   -3.4917   -0.1334 C.3       1 UNK         0.0835 
      6 C6         28.2545   -5.0169   -0.3929 C.3       12 UNK        -0.0855 
      7 S7         29.9189   -5.7630   -0.2321 S.3       12 UNK        -0.2931 
      8 C8         31.0726   -4.4967   -0.8793 C.3       12 UNK         0.0378 
      9 C9         30.8269   -4.0399   -2.3199 C.ar      12 UNK        -0.0802 
     10 C10        31.3553   -2.8132   -2.7291 C.ar      12 UNK        -0.0944 
     11 C11        31.1843   -2.3497   -4.0368 C.ar      12 UNK        -0.0787 
     12 C12        30.4359   -3.1211   -4.9383 C.ar      12 UNK        -0.0862 
     13 C13        29.9011   -4.3586   -4.5512 C.ar      12 UNK        -0.0733 
     14 C14        30.1185   -4.8122   -3.2474 C.ar      12 UNK        -0.0832 
     15 C15        29.1276   -5.2726   -5.5055 C.3       12 UNK         0.0240 
     16 S16        28.3771   -4.4708   -6.9613 S.3       12 UNK        -0.2522 
     17 C17        27.0590   -3.4655   -6.1986 C.3       12 UNK        -0.0967 
     18 CA         26.6734   -2.2644   -7.0958 C.3       5 UNK         0.0660 
     19 N          25.3722   -1.6944   -6.7401 N.am      5 UNK        -0.4015 
     20 C          24.6883   -0.8347   -7.5104 C.2       4 UNK         0.4946 
     21 O          25.0608   -0.4598   -8.6217 O.2       4 UNK        -0.5353 
     22 CA         23.3896   -0.2600   -6.9228 C.3       4 UNK         0.0277 
     23 CB         22.2340   -1.2635   -7.0654 C.3       4 UNK        -0.1981 
     24 N          23.5356    0.1342   -5.5202 N.am      4 UNK        -0.4209 
     25 C          24.3451    1.1137   -5.0915 C.2       3 UNK         0.4942 
     26 O          25.0179    1.8235   -5.8373 O.2       3 UNK        -0.5208 
     27 CA         24.4549    1.3072   -3.5707 C.3       3 UNK         0.0250 
     28 CB         23.3553    2.2563   -3.0682 C.3       3 UNK        -0.1990 
     29 N          24.4105    0.0542   -2.8090 N.am      3 UNK        -0.4232 
     30 C          25.2847   -0.9538   -2.9340 C.2       2 UNK         0.4993 
     31 O          26.2018   -0.9821   -3.7604 O.2       2 UNK        -0.5286 
     32 CA         25.0753   -2.1562   -2.0132 C.3       2 UNK         0.0209 
     33 CB         24.3169   -3.2748   -2.7481 C.3       2 UNK        -0.1931 
     34 N          26.3855   -2.6484   -1.5995 N.am      2 UNK        -0.4546 
     35 C          26.7068   -3.0172   -0.3549 C.2       1 UNK         0.5154 
     36 O          25.9053   -3.0342    0.5839 O.2       1 UNK        -0.5181 
     37 C          27.7651   -1.1798   -7.1089 C.2       5 UNK         0.5014 
     38 O          28.5272   -1.1045   -8.0726 O.2       5 UNK        -0.5248 
     39 N          27.7863   -0.3347   -6.0679 N.am      6 UNK        -0.4434 
     40 CA         28.6985    0.8017   -5.9365 C.3       6 UNK         0.0363 
     41 CB         28.4707    1.4861   -4.5809 C.3       6 UNK        -0.1936 
     42 C          28.5908    1.8088   -7.0933 C.2       6 UNK         0.5081 
     43 O          29.6199    2.3071   -7.5493 O.2       6 UNK        -0.5248 
     44 N          27.3645    2.0620   -7.5687 N.am      7 UNK        -0.4718 
     45 CA         27.0924    2.8628   -8.7605 C.3       7 UNK         0.0273 
     46 CB         25.6014    3.2340   -8.8074 C.3       7 UNK        -0.1935 
     47 C          27.5234    2.1523  -10.0542 C.2       7 UNK         0.5018 
     48 O          28.2266    2.7592  -10.8620 O.2       7 UNK        -0.5186 
     49 N          27.1015    0.8904  -10.2307 N.am      8 UNK        -0.4240 
     50 CA         27.3469    0.0906  -11.4362 C.3       8 UNK         0.0235 
     51 CB         26.5321   -1.2115  -11.3759 C.3       8 UNK        -0.2000 
     52 C          28.8310   -0.2173  -11.6892 C.2       8 UNK         0.4941 
     53 O          29.2929   -0.0657  -12.8209 O.2       8 UNK        -0.5273 
     54 N          29.5510   -0.6352  -10.6403 N.am      9 UNK        -0.4262 
     55 CA         30.9834   -0.9415  -10.6938 C.3       9 UNK         0.0264 
     56 CB         31.3035   -2.0141   -9.6399 C.3       9 UNK        -0.1955 
     57 C          31.8732    0.3017  -10.5069 C.2       9 UNK         0.5031 
     58 O          33.0872    0.1939  -10.6838 O.2       9 UNK        -0.5390 
     59 N          31.2689    1.4440  -10.1440 N.am      10 UNK        -0.4204 
     60 CA         31.8833    2.7536   -9.8851 C.3       10 UNK         0.0237 
     61 CB         32.5628    3.3104  -11.1545 C.3       10 UNK        -0.1985 
     62 C          32.8103    2.7943   -8.6514 C.2       10 UNK         0.4970 
     63 O          33.5611    3.7591   -8.4951 O.2       10 UNK        -0.4914 
     64 N          32.7328    1.7745   -7.7877 N.am      11 UNK        -0.4285 
     65 CA         33.4445    1.6913   -6.5046 C.3       11 UNK         0.1007 
     66 C          32.7841    2.4914   -5.3456 C.2       11 UNK         0.5703 
     67 N          31.5931    3.0523   -5.5132 N.am      11 UNK        -0.7361 
     68 O          33.3782    2.6267   -4.2787 O.2       11 UNK        -0.4986 
     69 C69        33.7677    0.2242   -6.1129 C.3       12 UNK        -0.0947 
     70 S70        32.3483   -0.9237   -6.1748 S.3       12 UNK        -0.2240 
     71 C71        31.8269   -1.0167   -4.4279 C.3       12 UNK         0.0194 
     72 H72        29.3610   -2.6655    3.6060 H         1 UNK         0.0906 
     73 H73        30.3532   -1.2928    3.1110 H         1 UNK         0.0906 
     74 H74        28.6668   -1.0433    3.5714 H         1 UNK         0.0906 
     75 H75        28.6611   -3.9046    1.8715 H         1 UNK         0.3140 
     76 H76        28.7796   -2.9618   -0.8557 H         1 UNK         0.1085 
     77 H77        27.8907   -5.2494   -1.3956 H         1 UNK         0.0836 
     78 H78        27.5921   -5.5557    0.2879 H         1 UNK         0.0836 
     79 H79        31.0591   -3.6370   -0.2080 H         1 UNK         0.0731 
     80 H80        32.0830   -4.9036   -0.8231 H         1 UNK         0.0731 
     81 H81        31.9200   -2.2182   -2.0237 H         1 UNK         0.1312 
     82 H82        30.2902   -2.7662   -5.9484 H         1 UNK         0.1406 
     83 H83        29.7327   -5.7804   -2.9609 H         1 UNK         0.1631 
     84 H84        28.3360   -5.7907   -4.9615 H         1 UNK         0.0717 
     85 H85        29.8110   -6.0445   -5.8612 H         1 UNK         0.0717 
     86 H86        26.1971   -4.1186   -6.0536 H         1 UNK         0.0934 
     87 H87        27.3605   -3.1352   -5.2023 H         1 UNK         0.0934 
     88 H88        26.5757   -2.6334   -8.1195 H         1 UNK         0.0739 
     89 H89        25.0267   -1.8963   -5.8140 H         1 UNK         0.3093 
     90 H90        23.1370    0.6348   -7.4963 H         1 UNK         0.0818 
     91 H91        21.2901   -0.8305   -6.7337 H         1 UNK         0.0819 
     92 H92        22.1030   -1.5596   -8.1073 H         1 UNK         0.0819 
     93 H93        22.4081   -2.1723   -6.4880 H         1 UNK         0.0819 
     94 H94        23.0087   -0.3877   -4.8355 H         1 UNK         0.3041 
     95 H95        25.4204    1.7745   -3.3696 H         1 UNK         0.0784 
     96 H96        23.3823    3.2041   -3.6083 H         1 UNK         0.0793 
     97 H97        22.3595    1.8325   -3.2039 H         1 UNK         0.0793 
     98 H98        23.4820    2.4865   -2.0102 H         1 UNK         0.0793 
     99 H99        23.6803   -0.0190   -2.1147 H         1 UNK         0.3024 
    100 H100       24.4966   -1.8368   -1.1430 H         1 UNK         0.1171 
    101 H101       24.1550   -4.1338   -2.0965 H         1 UNK         0.0786 
    102 H102       23.3362   -2.9329   -3.0811 H         1 UNK         0.0786 
    103 H103       24.8606   -3.6228   -3.6274 H         1 UNK         0.0786 
    104 H104       27.1002   -2.5942   -2.3141 H         1 UNK         0.2977 
    105 H105       27.1404   -0.4921   -5.2962 H         1 UNK         0.3127 
    106 H106       29.7119    0.4024   -5.9566 H         1 UNK         0.0770 
    107 H107       27.4726    1.9169   -4.5142 H         1 UNK         0.0814 
    108 H108       29.1820    2.2958   -4.4228 H         1 UNK         0.0814 
    109 H109       28.5899    0.7835   -3.7557 H         1 UNK         0.0814 
    110 H110       26.5612    1.6750   -7.0817 H         1 UNK         0.2983 
    111 H111       27.6679    3.7882   -8.6840 H         1 UNK         0.0947 
    112 H112       25.3749    3.8354   -9.6889 H         1 UNK         0.0806 
    113 H113       25.3130    3.8178   -7.9330 H         1 UNK         0.0806 
    114 H114       24.9635    2.3500   -8.8401 H         1 UNK         0.0806 
    115 H115       26.5087    0.4658   -9.5210 H         1 UNK         0.3000 
    116 H116       26.9867    0.6712  -12.2882 H         1 UNK         0.0850 
    117 H117       26.6963   -1.8194  -12.2666 H         1 UNK         0.0810 
    118 H118       25.4630   -1.0068  -11.3169 H         1 UNK         0.0810 
    119 H119       26.8045   -1.8170  -10.5107 H         1 UNK         0.0810 
    120 H120       29.0939   -0.7548   -9.7344 H         1 UNK         0.3040 
    121 H121       31.2229   -1.3591  -11.6740 H         1 UNK         0.0766 
    122 H122       31.0507   -1.6768   -8.6360 H         1 UNK         0.0812 
    123 H123       32.3640   -2.2693   -9.6424 H         1 UNK         0.0812 
    124 H124       30.7475   -2.9325   -9.8285 H         1 UNK         0.0812 
    125 H125       30.2662    1.4146  -10.0123 H         1 UNK         0.3205 
    126 H126       31.0524    3.4192   -9.6464 H         1 UNK         0.0754 
    127 H127       32.8702    4.3471  -11.0124 H         1 UNK         0.0769 
    128 H128       31.8839    3.2905  -12.0073 H         1 UNK         0.0769 
    129 H129       33.4544    2.7421  -11.4206 H         1 UNK         0.0769 
    130 H130       32.0645    1.0403   -7.9669 H         1 UNK         0.2981 
    131 H131       34.4115    2.1774   -6.6470 H         1 UNK         0.0541 
    132 H132       31.0690    2.9128   -6.3707 H         1 UNK         0.3459 
    133 H133       31.1973    3.5915   -4.7610 H         1 UNK         0.3459 
    134 H134       34.2535    0.1729   -5.1372 H         1 UNK         0.0612 
    135 H135       34.5069   -0.1649   -6.8146 H         1 UNK         0.0612 
    136 H136       31.1319   -0.2051   -4.2132 H         1 UNK         0.0624 
    137 H137       32.7001   -0.8450   -3.7972 H         1 UNK         0.0624 
@<TRIPOS>BOND
     1    1    2 1    
     2    1   72 1    
     3    1   73 1    
     4    1   74 1    
     5    2    3 2    
     6    2    4 am   BACKBONE|DICT|INTERRES
     7    4    5 1    
     8    4   75 1    
     9    5    6 1    
    10    5   35 1    
    11    5   76 1    
    12    6    7 1    
    13    6   77 1    
    14    6   78 1    
    15    7    8 1    
    16    8    9 1    
    17    8   79 1    
    18    8   80 1    
    19    9   10 ar   
    20    9   14 ar   
    21   10   11 ar   
    22   10   81 1    
    23   11   12 ar   
    24   11   71 1    
    25   12   13 ar   
    26   12   82 1    
    27   13   14 ar   
    28   13   15 1    
    29   14   83 1    
    30   15   16 1    
    31   15   84 1    
    32   15   85 1    
    33   16   17 1    
    34   17   18 1    
    35   17   86 1    
    36   17   87 1    
    37   18   19 1    
    38   18   37 1    
    39   18   88 1    
    40   19   20 am   BACKBONE|DICT|INTERRES
    41   19   89 1    
    42   20   21 2    
    43   20   22 1    
    44   22   23 1    
    45   22   24 1    
    46   22   90 1    
    47   23   91 1    
    48   23   92 1    
    49   23   93 1    
    50   24   25 am   BACKBONE|DICT|INTERRES
    51   24   94 1    
    52   25   26 2    
    53   25   27 1    
    54   27   28 1    
    55   27   29 1    
    56   27   95 1    
    57   28   96 1    
    58   28   97 1    
    59   28   98 1    
    60   29   30 am   BACKBONE|DICT|INTERRES
    61   29   99 1    
    62   30   31 2    
    63   30   32 1    
    64   32   33 1    
    65   32   34 1    
    66   32  100 1    
    67   33  101 1    
    68   33  102 1    
    69   33  103 1    
    70   34   35 am   BACKBONE|DICT|INTERRES
    71   34  104 1    
    72   35   36 2    
    73   37   38 2    
    74   37   39 am   BACKBONE|DICT|INTERRES
    75   39   40 1    
    76   39  105 1    
    77   40   41 1    
    78   40   42 1    
    79   40  106 1    
    80   41  107 1    
    81   41  108 1    
    82   41  109 1    
    83   42   43 2    
    84   42   44 am   BACKBONE|DICT|INTERRES
    85   44   45 1    
    86   44  110 1    
    87   45   46 1    
    88   45   47 1    
    89   45  111 1    
    90   46  112 1    
    91   46  113 1    
    92   46  114 1    
    93   47   48 2    
    94   47   49 am   BACKBONE|DICT|INTERRES
    95   49   50 1    
    96   49  115 1    
    97   50   51 1    
    98   50   52 1    
    99   50  116 1    
   100   51  117 1    
   101   51  118 1    
   102   51  119 1    
   103   52   53 2    
   104   52   54 am   BACKBONE|DICT|INTERRES
   105   54   55 1    
   106   54  120 1    
   107   55   56 1    
   108   55   57 1    
   109   55  121 1    
   110   56  122 1    
   111   56  123 1    
   112   56  124 1    
   113   57   58 2    
   114   57   59 am   BACKBONE|DICT|INTERRES
   115   59   60 1    
   116   59  125 1    
   117   60   61 1    
   118   60   62 1    
   119   60  126 1    
   120   61  127 1    
   121   61  128 1    
   122   61  129 1    
   123   62   63 2    
   124   62   64 am   BACKBONE|DICT|INTERRES
   125   64   65 1    
   126   64  130 1    
   127   65   66 1    
   128   65   69 1    
   129   65  131 1    
   130   66   67 am   BACKBONE|DICT|INTERRES
   131   66   68 2    
   132   67  132 1    
   133   67  133 1    
   134   69   70 1    
   135   69  134 1    
   136   69  135 1    
   137   70   71 1    
   138   71  136 1    
   139   71  137 1    
@<TRIPOS>SUBSTRUCTURE
     1 UNK         1 GROUP             0       ****    0 ROOT    
