@<TRIPOS>MOLECULE
3R137
137   139    1
SMALL
USER_CHARGES


@<TRIPOS>ATOM
      1 CA         23.4318    1.3277   -5.7163 C.3       0 UNK        -0.2020 
      2 C          23.2267   -0.0644   -6.2937 C.2       0 UNK         0.4855 
      3 O          22.0897   -0.4659   -6.5406 O.2       0 UNK        -0.5197 
      4 N          24.3212   -0.8027   -6.5133 N.am      1 UNK        -0.4892 
      5 CA         24.3245   -2.1689   -7.0565 C.3       1 UNK         0.0835 
      6 C6         25.6875   -2.5232   -7.7045 C.3       12 UNK        -0.0855 
      7 S7         27.1341   -2.1284   -6.6605 S.3       12 UNK        -0.2931 
      8 C8         27.6842   -3.7812   -6.1309 C.3       12 UNK         0.0378 
      9 C9         29.0233   -3.6636   -5.4238 C.ar      12 UNK        -0.0802 
     10 C10        30.1982   -3.5764   -6.1728 C.ar      12 UNK        -0.0944 
     11 C11        31.4236   -3.3287   -5.5522 C.ar      12 UNK        -0.0787 
     12 C12        31.4708   -3.1896   -4.1615 C.ar      12 UNK        -0.0862 
     13 C13        30.3048   -3.3027   -3.3946 C.ar      12 UNK        -0.0733 
     14 C14        29.0877   -3.5700   -4.0317 C.ar      12 UNK        -0.0832 
     15 C15        30.3680   -3.1038   -1.8827 C.3       12 UNK         0.0240 
     16 S16        29.0987   -1.9586   -1.2320 S.3       12 UNK        -0.2522 
     17 C17        29.2511   -0.5031   -2.3289 C.3       12 UNK        -0.0967 
     18 CA         27.9979   -0.3404   -3.2450 C.3       5 UNK         0.0660 
     19 N          26.7596   -0.1735   -2.4802 N.am      5 UNK        -0.4015 
     20 C          26.4023    0.8776   -1.7266 C.2       4 UNK         0.4946 
     21 O          27.0804    1.8984   -1.5970 O.2       4 UNK        -0.5353 
     22 CA         25.0605    0.7780   -0.9711 C.3       4 UNK         0.0277 
     23 CB         23.9576    1.5227   -1.7407 C.3       4 UNK        -0.1981 
     24 N          24.6271   -0.6018   -0.7332 N.am      4 UNK        -0.4209 
     25 C          25.2204   -1.4584    0.1112 C.2       3 UNK         0.4942 
     26 O          26.1026   -1.1300    0.9049 O.2       3 UNK        -0.5208 
     27 CA         24.7723   -2.9346    0.0564 C.3       3 UNK         0.0250 
     28 CB         23.8776   -3.2685    1.2617 C.3       3 UNK        -0.1990 
     29 N          24.0806   -3.3361   -1.1785 N.am      3 UNK        -0.4232 
     30 C          24.5904   -3.2751   -2.4173 C.2       2 UNK         0.4993 
     31 O          25.7116   -2.8284   -2.6667 O.2       2 UNK        -0.5286 
     32 CA         23.6967   -3.7299   -3.5805 C.3       2 UNK         0.0209 
     33 CB         22.1833   -3.6598   -3.2797 C.3       2 UNK        -0.1931 
     34 N          24.0159   -2.8934   -4.7327 N.am      2 UNK        -0.4546 
     35 C          23.8901   -3.2276   -6.0200 C.2       1 UNK         0.5154 
     36 O          23.4491   -4.3120   -6.4045 O.2       1 UNK        -0.5181 
     37 C          28.1480    0.7081   -4.3724 C.2       5 UNK         0.5014 
     38 O          27.1447    1.2334   -4.8656 O.2       5 UNK        -0.5248 
     39 N          29.3978    0.9547   -4.7893 N.am      6 UNK        -0.4434 
     40 CA         29.8752    1.9205   -5.7831 C.3       6 UNK         0.0363 
     41 CB         29.5309    3.3671   -5.3792 C.3       6 UNK        -0.1936 
     42 C          29.4583    1.6368   -7.2350 C.2       6 UNK         0.5081 
     43 O          30.3325    1.5216   -8.0944 O.2       6 UNK        -0.5248 
     44 N          28.1462    1.5820   -7.4849 N.am      7 UNK        -0.4718 
     45 CA         27.5029    1.7544   -8.7932 C.3       7 UNK         0.0273 
     46 CB         25.9789    1.6913   -8.6105 C.3       7 UNK        -0.1935 
     47 C          27.9364    0.8007   -9.9204 C.2       7 UNK         0.5018 
     48 O          27.7959    1.1707  -11.0870 O.2       7 UNK        -0.5186 
     49 N          28.4274   -0.3975   -9.5772 N.am      8 UNK        -0.4240 
     50 CA         28.8336   -1.4199  -10.5452 C.3       8 UNK         0.0235 
     51 CB         29.1043   -2.7457   -9.8219 C.3       8 UNK        -0.2000 
     52 C          30.0613   -1.0335  -11.3867 C.2       8 UNK         0.4941 
     53 O          30.0752   -1.3218  -12.5846 O.2       8 UNK        -0.5273 
     54 N          31.0762   -0.4294  -10.7521 N.am      9 UNK        -0.4262 
     55 CA         32.3819   -0.1750  -11.3733 C.3       9 UNK         0.0264 
     56 CB         33.2106   -1.4791  -11.3949 C.3       9 UNK        -0.1955 
     57 C          33.1494    0.9855  -10.7169 C.2       9 UNK         0.5031 
     58 O          34.3783    1.0117  -10.8056 O.2       9 UNK        -0.5390 
     59 N          32.4327    1.9161  -10.0667 N.am      10 UNK        -0.4204 
     60 CA         32.9601    3.0250   -9.2569 C.3       10 UNK         0.0237 
     61 CB         33.7167    4.0520  -10.1274 C.3       10 UNK        -0.1985 
     62 C          33.7828    2.5086   -8.0595 C.2       10 UNK         0.4970 
     63 O          34.9069    2.9587   -7.8309 O.2       10 UNK        -0.4914 
     64 N          33.1969    1.5473   -7.3348 N.am      11 UNK        -0.4285 
     65 CA         33.8039    0.8338   -6.1978 C.3       11 UNK         0.1007 
     66 C          34.0531    1.6964   -4.9239 C.2       11 UNK         0.5703 
     67 N          33.5420    2.9185   -4.8290 N.am      11 UNK        -0.7361 
     68 O          34.7265    1.2440   -4.0014 O.2       11 UNK        -0.4986 
     69 C69        33.0120   -0.4527   -5.8354 C.3       12 UNK        -0.0947 
     70 S70        32.7625   -1.5828   -7.2453 S.3       12 UNK        -0.2240 
     71 C71        32.6848   -3.1933   -6.3951 C.3       12 UNK         0.0194 
     72 H72        22.7281    1.5069   -4.9041 H         1 UNK         0.0906 
     73 H73        24.4410    1.4626   -5.3266 H         1 UNK         0.0906 
     74 H74        23.2599    2.0800   -6.4854 H         1 UNK         0.0906 
     75 H75        25.2357   -0.4334   -6.2866 H         1 UNK         0.3140 
     76 H76        23.5732   -2.2096   -7.8488 H         1 UNK         0.1085 
     77 H77        25.7976   -1.9515   -8.6273 H         1 UNK         0.0836 
     78 H78        25.7176   -3.5699   -8.0141 H         1 UNK         0.0836 
     79 H79        26.9345   -4.2239   -5.4728 H         1 UNK         0.0731 
     80 H80        27.7775   -4.4394   -6.9960 H         1 UNK         0.0731 
     81 H81        30.1550   -3.6686   -7.2463 H         1 UNK         0.1312 
     82 H82        32.4159   -2.9828   -3.6782 H         1 UNK         0.1406 
     83 H83        28.1795   -3.6395   -3.4469 H         1 UNK         0.1631 
     84 H84        31.3483   -2.7274   -1.5863 H         1 UNK         0.0717 
     85 H85        30.2499   -4.0721   -1.3949 H         1 UNK         0.0717 
     86 H86        30.1712   -0.6153   -2.9019 H         1 UNK         0.0934 
     87 H87        29.3909    0.3847   -1.7097 H         1 UNK         0.0934 
     88 H88        27.8541   -1.2733   -3.7845 H         1 UNK         0.0739 
     89 H89        26.1664   -0.9977   -2.4819 H         1 UNK         0.3093 
     90 H90        25.1934    1.2651   -0.0026 H         1 UNK         0.0818 
     91 H91        23.0243    1.5439   -1.1778 H         1 UNK         0.0819 
     92 H92        24.2442    2.5582   -1.9300 H         1 UNK         0.0819 
     93 H93        23.7590    1.0581   -2.7065 H         1 UNK         0.0819 
     94 H94        23.8849   -0.9540   -1.3188 H         1 UNK         0.3041 
     95 H95        25.6797   -3.5382    0.1267 H         1 UNK         0.0784 
     96 H96        24.3738   -3.0146    2.1997 H         1 UNK         0.0793 
     97 H97        22.9372   -2.7167    1.2313 H         1 UNK         0.0793 
     98 H98        23.6436   -4.3326    1.3013 H         1 UNK         0.0793 
     99 H99        23.1448   -3.6993   -1.0671 H         1 UNK         0.3024 
    100 H100       23.9703   -4.7634   -3.8048 H         1 UNK         0.1171 
    101 H101       21.5954   -3.9373   -4.1550 H         1 UNK         0.0786 
    102 H102       21.8749   -2.6563   -2.9834 H         1 UNK         0.0786 
    103 H103       21.8992   -4.3492   -2.4839 H         1 UNK         0.0786 
    104 H104       24.4682   -2.0162   -4.5166 H         1 UNK         0.2977 
    105 H105       30.1303    0.4135   -4.3551 H         1 UNK         0.3127 
    106 H106       30.9601    1.8473   -5.7551 H         1 UNK         0.0770 
    107 H107       28.4550    3.5413   -5.3477 H         1 UNK         0.0814 
    108 H108       29.9529    4.0809   -6.0880 H         1 UNK         0.0814 
    109 H109       29.9360    3.6093   -4.3967 H         1 UNK         0.0814 
    110 H110       27.5394    1.6045   -6.6682 H         1 UNK         0.2983 
    111 H111       27.7580    2.7618   -9.1285 H         1 UNK         0.0947 
    112 H112       25.4630    1.9349   -9.5403 H         1 UNK         0.0806 
    113 H113       25.6340    2.3974   -7.8550 H         1 UNK         0.0806 
    114 H114       25.6586    0.6932   -8.3164 H         1 UNK         0.0806 
    115 H115       28.5017   -0.6226   -8.5946 H         1 UNK         0.3000 
    116 H116       27.9979   -1.5744  -11.2315 H         1 UNK         0.0850 
    117 H117       29.3521   -3.5346  -10.5334 H         1 UNK         0.0810 
    118 H118       28.2366   -3.0835   -9.2573 H         1 UNK         0.0810 
    119 H119       29.9475   -2.6491   -9.1398 H         1 UNK         0.0810 
    120 H120       30.9839   -0.2248   -9.7648 H         1 UNK         0.3040 
    121 H121       32.2181    0.1391  -12.4063 H         1 UNK         0.0766 
    122 H122       32.6901   -2.2788  -11.9216 H         1 UNK         0.0812 
    123 H123       33.4272   -1.8293  -10.3851 H         1 UNK         0.0812 
    124 H124       34.1645   -1.3361  -11.9041 H         1 UNK         0.0812 
    125 H125       31.4288    1.7952  -10.0114 H         1 UNK         0.3205 
    126 H126       32.0936    3.5353   -8.8336 H         1 UNK         0.0754 
    127 H127       33.9987    4.9263   -9.5395 H         1 UNK         0.0769 
    128 H128       33.0981    4.4030  -10.9533 H         1 UNK         0.0769 
    129 H129       34.6332    3.6369  -10.5478 H         1 UNK         0.0769 
    130 H130       32.2638    1.2554   -7.6022 H         1 UNK         0.2981 
    131 H131       34.7943    0.5175   -6.5304 H         1 UNK         0.0541 
    132 H132       33.0228    3.3195   -5.5915 H         1 UNK         0.3459 
    133 H133       33.7198    3.4606   -3.9984 H         1 UNK         0.3459 
    134 H134       32.0323   -0.2082   -5.4264 H         1 UNK         0.0612 
    135 H135       33.5379   -1.0000   -5.0511 H         1 UNK         0.0612 
    136 H136       32.7042   -3.9853   -7.1451 H         1 UNK         0.0624 
    137 H137       33.5789   -3.3295   -5.7850 H         1 UNK         0.0624 
@<TRIPOS>BOND
     1    1    2 1    
     2    1   72 1    
     3    1   73 1    
     4    1   74 1    
     5    2    3 2    
     6    2    4 am   BACKBONE|DICT|INTERRES
     7    4    5 1    
     8    4   75 1    
     9    5    6 1    
    10    5   35 1    
    11    5   76 1    
    12    6    7 1    
    13    6   77 1    
    14    6   78 1    
    15    7    8 1    
    16    8    9 1    
    17    8   79 1    
    18    8   80 1    
    19    9   10 ar   
    20    9   14 ar   
    21   10   11 ar   
    22   10   81 1    
    23   11   12 ar   
    24   11   71 1    
    25   12   13 ar   
    26   12   82 1    
    27   13   14 ar   
    28   13   15 1    
    29   14   83 1    
    30   15   16 1    
    31   15   84 1    
    32   15   85 1    
    33   16   17 1    
    34   17   18 1    
    35   17   86 1    
    36   17   87 1    
    37   18   19 1    
    38   18   37 1    
    39   18   88 1    
    40   19   20 am   BACKBONE|DICT|INTERRES
    41   19   89 1    
    42   20   21 2    
    43   20   22 1    
    44   22   23 1    
    45   22   24 1    
    46   22   90 1    
    47   23   91 1    
    48   23   92 1    
    49   23   93 1    
    50   24   25 am   BACKBONE|DICT|INTERRES
    51   24   94 1    
    52   25   26 2    
    53   25   27 1    
    54   27   28 1    
    55   27   29 1    
    56   27   95 1    
    57   28   96 1    
    58   28   97 1    
    59   28   98 1    
    60   29   30 am   BACKBONE|DICT|INTERRES
    61   29   99 1    
    62   30   31 2    
    63   30   32 1    
    64   32   33 1    
    65   32   34 1    
    66   32  100 1    
    67   33  101 1    
    68   33  102 1    
    69   33  103 1    
    70   34   35 am   BACKBONE|DICT|INTERRES
    71   34  104 1    
    72   35   36 2    
    73   37   38 2    
    74   37   39 am   BACKBONE|DICT|INTERRES
    75   39   40 1    
    76   39  105 1    
    77   40   41 1    
    78   40   42 1    
    79   40  106 1    
    80   41  107 1    
    81   41  108 1    
    82   41  109 1    
    83   42   43 2    
    84   42   44 am   BACKBONE|DICT|INTERRES
    85   44   45 1    
    86   44  110 1    
    87   45   46 1    
    88   45   47 1    
    89   45  111 1    
    90   46  112 1    
    91   46  113 1    
    92   46  114 1    
    93   47   48 2    
    94   47   49 am   BACKBONE|DICT|INTERRES
    95   49   50 1    
    96   49  115 1    
    97   50   51 1    
    98   50   52 1    
    99   50  116 1    
   100   51  117 1    
   101   51  118 1    
   102   51  119 1    
   103   52   53 2    
   104   52   54 am   BACKBONE|DICT|INTERRES
   105   54   55 1    
   106   54  120 1    
   107   55   56 1    
   108   55   57 1    
   109   55  121 1    
   110   56  122 1    
   111   56  123 1    
   112   56  124 1    
   113   57   58 2    
   114   57   59 am   BACKBONE|DICT|INTERRES
   115   59   60 1    
   116   59  125 1    
   117   60   61 1    
   118   60   62 1    
   119   60  126 1    
   120   61  127 1    
   121   61  128 1    
   122   61  129 1    
   123   62   63 2    
   124   62   64 am   BACKBONE|DICT|INTERRES
   125   64   65 1    
   126   64  130 1    
   127   65   66 1    
   128   65   69 1    
   129   65  131 1    
   130   66   67 am   BACKBONE|DICT|INTERRES
   131   66   68 2    
   132   67  132 1    
   133   67  133 1    
   134   69   70 1    
   135   69  134 1    
   136   69  135 1    
   137   70   71 1    
   138   71  136 1    
   139   71  137 1    
@<TRIPOS>SUBSTRUCTURE
     1 UNK         1 GROUP             0       ****    0 ROOT    
