@<TRIPOS>MOLECULE
3R137
137   139    1
SMALL
USER_CHARGES


@<TRIPOS>ATOM
      1 CA         27.9677   -5.6752    1.4691 C.3       0 UNK        -0.2020 
      2 C          27.8416   -4.5024    0.5092 C.2       0 UNK         0.4855 
      3 O          27.9012   -4.7028   -0.7039 O.2       0 UNK        -0.5197 
      4 N          27.6697   -3.2862    1.0466 N.am      1 UNK        -0.4892 
      5 CA         27.5259   -1.9914    0.3578 C.3       1 UNK         0.0835 
      6 C6         28.7270   -1.5966   -0.5416 C.3       12 UNK        -0.0855 
      7 S7         30.3269   -1.5560    0.3434 S.3       12 UNK        -0.2931 
      8 C8         31.2104   -3.0023   -0.3392 C.3       12 UNK         0.0378 
      9 C9         31.3460   -2.9348   -1.8545 C.ar      12 UNK        -0.0802 
     10 C10        32.1912   -1.9931   -2.4465 C.ar      12 UNK        -0.0944 
     11 C11        32.2663   -1.8883   -3.8374 C.ar      12 UNK        -0.0787 
     12 C12        31.5122   -2.7528   -4.6371 C.ar      12 UNK        -0.0862 
     13 C13        30.6386   -3.6807   -4.0587 C.ar      12 UNK        -0.0733 
     14 C14        30.5860   -3.7830   -2.6661 C.ar      12 UNK        -0.0832 
     15 C15        29.7187   -4.5628   -4.9044 C.3       12 UNK         0.0240 
     16 S16        29.0133   -3.7551   -6.3876 S.3       12 UNK        -0.2522 
     17 C17        28.3628   -2.1807   -5.7331 C.3       12 UNK        -0.0967 
     18 CA         27.5991   -1.3823   -6.8247 C.3       5 UNK         0.0660 
     19 N          26.1592   -1.6595   -6.8097 N.am      5 UNK        -0.4015 
     20 C          25.2967   -1.2708   -7.7607 C.2       4 UNK         0.4946 
     21 O          25.6236   -0.6625   -8.7787 O.2       4 UNK        -0.5353 
     22 CA         23.8086   -1.5673   -7.5115 C.3       4 UNK         0.0277 
     23 CB         23.4810   -3.0313   -7.8468 C.3       4 UNK        -0.1981 
     24 N          23.3924   -1.2675   -6.1392 N.am      4 UNK        -0.4209 
     25 C          23.4189   -0.0453   -5.5870 C.2       3 UNK         0.4942 
     26 O          23.7515    0.9714   -6.1919 O.2       3 UNK        -0.5208 
     27 CA         23.0558    0.0624   -4.0975 C.3       3 UNK         0.0250 
     28 CB         21.5528    0.3353   -3.9290 C.3       3 UNK        -0.1990 
     29 N          23.4334   -1.1154   -3.3110 N.am      3 UNK        -0.4232 
     30 C          24.6870   -1.5615   -3.1508 C.2       2 UNK         0.4993 
     31 O          25.6758   -1.0567   -3.6923 O.2       2 UNK        -0.5286 
     32 CA         24.8447   -2.8282   -2.2946 C.3       2 UNK         0.0209 
     33 CB         24.9850   -4.0634   -3.1999 C.3       2 UNK        -0.1931 
     34 N          26.0015   -2.7635   -1.4035 N.am      2 UNK        -0.4546 
     35 C          26.1989   -1.8751   -0.4216 C.2       1 UNK         0.5154 
     36 O          25.3825   -1.0072   -0.1074 O.2       1 UNK        -0.5181 
     37 C          27.8855    0.1281   -6.7172 C.2       5 UNK         0.5014 
     38 O          28.7563    0.6294   -7.4335 O.2       5 UNK        -0.5248 
     39 N          27.1384    0.8231   -5.8468 N.am      6 UNK        -0.4434 
     40 CA         27.2102    2.2752   -5.6786 C.3       6 UNK         0.0363 
     41 CB         26.3892    2.6994   -4.4504 C.3       6 UNK        -0.1936 
     42 C          26.7613    3.0370   -6.9380 C.2       6 UNK         0.5081 
     43 O          27.4659    3.9476   -7.3726 O.2       6 UNK        -0.5248 
     44 N          25.6209    2.6351   -7.5177 N.am      7 UNK        -0.4718 
     45 CA         25.0505    3.2134   -8.7382 C.3       7 UNK         0.0273 
     46 CB         23.6360    2.6555   -8.9625 C.3       7 UNK        -0.1935 
     47 C          25.9215    2.9863   -9.9838 C.2       7 UNK         0.5018 
     48 O          26.0587    3.9010  -10.7970 O.2       7 UNK        -0.5186 
     49 N          26.5070    1.7865  -10.1049 N.am      8 UNK        -0.4240 
     50 CA         27.4329    1.4258  -11.1820 C.3       8 UNK         0.0235 
     51 CB         27.5838   -0.1041  -11.2260 C.3       8 UNK        -0.2000 
     52 C          28.8187    2.0834  -11.0553 C.2       8 UNK         0.4941 
     53 O          29.5496    2.1059  -12.0465 O.2       8 UNK        -0.5273 
     54 N          29.1647    2.5679   -9.8508 N.am      9 UNK        -0.4262 
     55 CA         30.4868    3.0517   -9.4331 C.3       9 UNK         0.0264 
     56 CB         30.8682    4.3522  -10.1718 C.3       9 UNK        -0.1955 
     57 C          31.5453    1.9387   -9.5586 C.2       9 UNK         0.5031 
     58 O          32.5871    2.1288  -10.1914 O.2       9 UNK        -0.5390 
     59 N          31.2131    0.7735   -8.9893 N.am      10 UNK        -0.4204 
     60 CA         31.9960   -0.4602   -9.0468 C.3       10 UNK         0.0237 
     61 CB         31.0763   -1.6177   -8.6171 C.3       10 UNK        -0.1985 
     62 C          33.2750   -0.4163   -8.1875 C.2       10 UNK         0.4970 
     63 O          33.5180    0.5582   -7.4741 O.2       10 UNK        -0.4914 
     64 N          34.0506   -1.5040   -8.2734 N.am      11 UNK        -0.4285 
     65 CA         35.2343   -1.8563   -7.4672 C.3       11 UNK         0.1007 
     66 C          36.4675   -0.9021   -7.5364 C.2       11 UNK         0.5703 
     67 N          36.4511    0.1565   -8.3360 N.am      11 UNK        -0.7361 
     68 O          37.4850   -1.1621   -6.8979 O.2       11 UNK        -0.4986 
     69 C69        34.8607   -2.3727   -6.0398 C.3       12 UNK        -0.0947 
     70 S70        34.8381   -1.1530   -4.6765 S.3       12 UNK        -0.2240 
     71 C71        33.0710   -0.7672   -4.4734 C.3       12 UNK         0.0194 
     72 H72        27.1738   -6.3980    1.2833 H         1 UNK         0.0906 
     73 H73        27.9044   -5.3610    2.5108 H         1 UNK         0.0906 
     74 H74        28.9247   -6.1755    1.3235 H         1 UNK         0.0906 
     75 H75        27.6149   -3.2192    2.0539 H         1 UNK         0.3140 
     76 H76        27.4706   -1.2477    1.1550 H         1 UNK         0.1085 
     77 H77        28.5684   -0.5982   -0.9541 H         1 UNK         0.0836 
     78 H78        28.7864   -2.2555   -1.4059 H         1 UNK         0.0836 
     79 H79        32.2041   -3.0520    0.1082 H         1 UNK         0.0731 
     80 H80        30.6957   -3.9145   -0.0359 H         1 UNK         0.0731 
     81 H81        32.7570   -1.3138   -1.8233 H         1 UNK         0.1312 
     82 H82        31.5613   -2.6628   -5.7125 H         1 UNK         0.1406 
     83 H83        29.9192   -4.5012   -2.2096 H         1 UNK         0.1631 
     84 H84        28.8861   -4.9242   -4.2984 H         1 UNK         0.0717 
     85 H85        30.2756   -5.4457   -5.2200 H         1 UNK         0.0717 
     86 H86        27.7355   -2.3771   -4.8620 H         1 UNK         0.0934 
     87 H87        29.2116   -1.6101   -5.3537 H         1 UNK         0.0934 
     88 H88        27.9708   -1.6800   -7.8079 H         1 UNK         0.0739 
     89 H89        25.7975   -2.1080   -5.9812 H         1 UNK         0.3093 
     90 H90        23.2299   -0.9267   -8.1806 H         1 UNK         0.0818 
     91 H91        23.7729   -3.2701   -8.8706 H         1 UNK         0.0819 
     92 H92        24.0026   -3.7275   -7.1888 H         1 UNK         0.0819 
     93 H93        22.4118   -3.2273   -7.7638 H         1 UNK         0.0819 
     94 H94        23.0893   -2.0435   -5.5695 H         1 UNK         0.3041 
     95 H95        23.6041    0.9146   -3.6908 H         1 UNK         0.0784 
     96 H96        21.2530    1.2224   -4.4891 H         1 UNK         0.0793 
     97 H97        20.9464   -0.4971   -4.2885 H         1 UNK         0.0793 
     98 H98        21.2957    0.5132   -2.8846 H         1 UNK         0.0793 
     99 H99        22.6807   -1.5983   -2.8409 H         1 UNK         0.3024 
    100 H100       23.9576   -2.9478   -1.6688 H         1 UNK         0.1171 
    101 H101       24.1257   -4.1664   -3.8638 H         1 UNK         0.0786 
    102 H102       25.8777   -4.0061   -3.8246 H         1 UNK         0.0786 
    103 H103       25.0494   -4.9794   -2.6119 H         1 UNK         0.0786 
    104 H104       26.7161   -3.4777   -1.5183 H         1 UNK         0.2977 
    105 H105       26.4681    0.3234   -5.2736 H         1 UNK         0.3127 
    106 H106       28.2548    2.5333   -5.4907 H         1 UNK         0.0770 
    107 H107       25.3283    2.4841   -4.5764 H         1 UNK         0.0814 
    108 H108       26.4835    3.7714   -4.2727 H         1 UNK         0.0814 
    109 H109       26.7296    2.1893   -3.5490 H         1 UNK         0.0814 
    110 H110       25.0713    1.9059   -7.0653 H         1 UNK         0.2983 
    111 H111       24.9712    4.2921   -8.5869 H         1 UNK         0.0947 
    112 H112       23.6451    1.5709   -9.0781 H         1 UNK         0.0806 
    113 H113       23.1853    3.0781   -9.8615 H         1 UNK         0.0806 
    114 H114       22.9788    2.8959   -8.1266 H         1 UNK         0.0806 
    115 H115       26.2851    1.0574   -9.4308 H         1 UNK         0.3000 
    116 H116       27.0006    1.7544  -12.1296 H         1 UNK         0.0850 
    117 H117       28.2475   -0.4113  -12.0353 H         1 UNK         0.0810 
    118 H118       26.6236   -0.5929  -11.3921 H         1 UNK         0.0810 
    119 H119       28.0010   -0.4924  -10.2957 H         1 UNK         0.0810 
    120 H120       28.4851    2.4825   -9.1053 H         1 UNK         0.3040 
    121 H121       30.4063    3.2860   -8.3703 H         1 UNK         0.0766 
    122 H122       31.0100    4.1890  -11.2404 H         1 UNK         0.0812 
    123 H123       31.8007    4.7606   -9.7806 H         1 UNK         0.0812 
    124 H124       30.1010    5.1164  -10.0476 H         1 UNK         0.0812 
    125 H125       30.3431    0.7317   -8.4613 H         1 UNK         0.3205 
    126 H126       32.2979   -0.6193  -10.0842 H         1 UNK         0.0754 
    127 H127       31.5742   -2.5855   -8.6816 H         1 UNK         0.0769 
    128 H128       30.1906   -1.6745   -9.2503 H         1 UNK         0.0769 
    129 H129       30.7387   -1.4905   -7.5887 H         1 UNK         0.0769 
    130 H130       33.7785   -2.2159   -8.9355 H         1 UNK         0.2981 
    131 H131       35.6028   -2.7378   -7.9933 H         1 UNK         0.0541 
    132 H132       35.6087    0.4026   -8.8315 H         1 UNK         0.3459 
    133 H133       37.2627    0.7514   -8.3868 H         1 UNK         0.3459 
    134 H134       35.5954   -3.1241   -5.7462 H         1 UNK         0.0612 
    135 H135       33.9142   -2.9111   -6.0677 H         1 UNK         0.0612 
    136 H136       32.9886    0.1285   -3.8562 H         1 UNK         0.0624 
    137 H137       32.6250   -0.5037   -5.4284 H         1 UNK         0.0624 
@<TRIPOS>BOND
     1    1    2 1    
     2    1   72 1    
     3    1   73 1    
     4    1   74 1    
     5    2    3 2    
     6    2    4 am   BACKBONE|DICT|INTERRES
     7    4    5 1    
     8    4   75 1    
     9    5    6 1    
    10    5   35 1    
    11    5   76 1    
    12    6    7 1    
    13    6   77 1    
    14    6   78 1    
    15    7    8 1    
    16    8    9 1    
    17    8   79 1    
    18    8   80 1    
    19    9   10 ar   
    20    9   14 ar   
    21   10   11 ar   
    22   10   81 1    
    23   11   12 ar   
    24   11   71 1    
    25   12   13 ar   
    26   12   82 1    
    27   13   14 ar   
    28   13   15 1    
    29   14   83 1    
    30   15   16 1    
    31   15   84 1    
    32   15   85 1    
    33   16   17 1    
    34   17   18 1    
    35   17   86 1    
    36   17   87 1    
    37   18   19 1    
    38   18   37 1    
    39   18   88 1    
    40   19   20 am   BACKBONE|DICT|INTERRES
    41   19   89 1    
    42   20   21 2    
    43   20   22 1    
    44   22   23 1    
    45   22   24 1    
    46   22   90 1    
    47   23   91 1    
    48   23   92 1    
    49   23   93 1    
    50   24   25 am   BACKBONE|DICT|INTERRES
    51   24   94 1    
    52   25   26 2    
    53   25   27 1    
    54   27   28 1    
    55   27   29 1    
    56   27   95 1    
    57   28   96 1    
    58   28   97 1    
    59   28   98 1    
    60   29   30 am   BACKBONE|DICT|INTERRES
    61   29   99 1    
    62   30   31 2    
    63   30   32 1    
    64   32   33 1    
    65   32   34 1    
    66   32  100 1    
    67   33  101 1    
    68   33  102 1    
    69   33  103 1    
    70   34   35 am   BACKBONE|DICT|INTERRES
    71   34  104 1    
    72   35   36 2    
    73   37   38 2    
    74   37   39 am   BACKBONE|DICT|INTERRES
    75   39   40 1    
    76   39  105 1    
    77   40   41 1    
    78   40   42 1    
    79   40  106 1    
    80   41  107 1    
    81   41  108 1    
    82   41  109 1    
    83   42   43 2    
    84   42   44 am   BACKBONE|DICT|INTERRES
    85   44   45 1    
    86   44  110 1    
    87   45   46 1    
    88   45   47 1    
    89   45  111 1    
    90   46  112 1    
    91   46  113 1    
    92   46  114 1    
    93   47   48 2    
    94   47   49 am   BACKBONE|DICT|INTERRES
    95   49   50 1    
    96   49  115 1    
    97   50   51 1    
    98   50   52 1    
    99   50  116 1    
   100   51  117 1    
   101   51  118 1    
   102   51  119 1    
   103   52   53 2    
   104   52   54 am   BACKBONE|DICT|INTERRES
   105   54   55 1    
   106   54  120 1    
   107   55   56 1    
   108   55   57 1    
   109   55  121 1    
   110   56  122 1    
   111   56  123 1    
   112   56  124 1    
   113   57   58 2    
   114   57   59 am   BACKBONE|DICT|INTERRES
   115   59   60 1    
   116   59  125 1    
   117   60   61 1    
   118   60   62 1    
   119   60  126 1    
   120   61  127 1    
   121   61  128 1    
   122   61  129 1    
   123   62   63 2    
   124   62   64 am   BACKBONE|DICT|INTERRES
   125   64   65 1    
   126   64  130 1    
   127   65   66 1    
   128   65   69 1    
   129   65  131 1    
   130   66   67 am   BACKBONE|DICT|INTERRES
   131   66   68 2    
   132   67  132 1    
   133   67  133 1    
   134   69   70 1    
   135   69  134 1    
   136   69  135 1    
   137   70   71 1    
   138   71  136 1    
   139   71  137 1    
@<TRIPOS>SUBSTRUCTURE
     1 UNK         1 GROUP             0       ****    0 ROOT    
