@<TRIPOS>MOLECULE
3R137
137   139    1
SMALL
USER_CHARGES


@<TRIPOS>ATOM
      1 CA         25.4217   -5.7316   -3.5288 C.3       0 UNK        -0.2020 
      2 C          25.7671   -4.7079   -2.4594 C.2       0 UNK         0.4855 
      3 O          24.9676   -4.4792   -1.5513 O.2       0 UNK        -0.5197 
      4 N          26.9515   -4.0946   -2.5584 N.am      1 UNK        -0.4892 
      5 CA         27.4319   -3.0801   -1.6145 C.3       1 UNK         0.0835 
      6 C6         28.9618   -3.1567   -1.3909 C.3       12 UNK        -0.0855 
      7 S7         29.4783   -4.8028   -0.7774 S.3       12 UNK        -0.2931 
      8 C8         31.1785   -4.9789   -1.4218 C.3       12 UNK         0.0378 
      9 C9         31.2842   -4.6688   -2.9090 C.ar      12 UNK        -0.0802 
     10 C10        32.1310   -3.6469   -3.3484 C.ar      12 UNK        -0.0944 
     11 C11        32.1816   -3.2982   -4.7002 C.ar      12 UNK        -0.0787 
     12 C12        31.3842   -3.9864   -5.6182 C.ar      12 UNK        -0.0862 
     13 C13        30.5175   -4.9972   -5.1870 C.ar      12 UNK        -0.0733 
     14 C14        30.4930   -5.3541   -3.8363 C.ar      12 UNK        -0.0832 
     15 C15        29.5493   -5.6492   -6.1652 C.3       12 UNK         0.0240 
     16 S16        27.8518   -5.0077   -5.9493 S.3       12 UNK        -0.2522 
     17 C17        28.1389   -3.2137   -6.0548 C.3       12 UNK        -0.0967 
     18 CA         26.9649   -2.4215   -6.6745 C.3       5 UNK         0.0660 
     19 N          25.7882   -2.3178   -5.8089 N.am      5 UNK        -0.4015 
     20 C          24.5329   -2.4194   -6.2660 C.2       4 UNK         0.4946 
     21 O          24.2377   -2.8588   -7.3787 O.2       4 UNK        -0.5353 
     22 CA         23.4040   -1.8957   -5.3608 C.3       4 UNK         0.0277 
     23 CB         22.9727   -2.9489   -4.3307 C.3       4 UNK        -0.1981 
     24 N          23.7003   -0.6340   -4.6751 N.am      4 UNK        -0.4209 
     25 C          24.0616    0.5209   -5.2503 C.2       3 UNK         0.4942 
     26 O          24.3102    0.6449   -6.4478 O.2       3 UNK        -0.5208 
     27 CA         24.1857    1.7542   -4.3368 C.3       3 UNK         0.0250 
     28 CB         22.8085    2.2292   -3.8328 C.3       3 UNK        -0.1990 
     29 N          25.1434    1.5775   -3.2388 N.am      3 UNK        -0.4232 
     30 C          25.0893    0.7118   -2.2186 C.2       2 UNK         0.4993 
     31 O          24.1229   -0.0127   -1.9661 O.2       2 UNK        -0.5286 
     32 CA         26.3563    0.6105   -1.3555 C.3       2 UNK         0.0209 
     33 CB         26.1415    1.2966    0.0031 C.3       2 UNK        -0.1931 
     34 N          26.7608   -0.7811   -1.1395 N.am      2 UNK        -0.4546 
     35 C          27.0258   -1.6771   -2.1019 C.2       1 UNK         0.5154 
     36 O          26.9954   -1.4241   -3.3144 O.2       1 UNK        -0.5181 
     37 C          27.4511   -1.0065   -7.0130 C.2       5 UNK         0.5014 
     38 O          27.6473   -0.7031   -8.1902 O.2       5 UNK        -0.5248 
     39 N          27.6943   -0.1914   -5.9738 N.am      6 UNK        -0.4434 
     40 CA         28.4947    1.0361   -6.0376 C.3       6 UNK         0.0363 
     41 CB         28.6082    1.6527   -4.6366 C.3       6 UNK        -0.1936 
     42 C          28.0517    2.0941   -7.0631 C.2       6 UNK         0.5081 
     43 O          28.9134    2.8193   -7.5569 O.2       6 UNK        -0.5248 
     44 N          26.7566    2.1560   -7.4091 N.am      7 UNK        -0.4718 
     45 CA         26.2470    3.0660   -8.4441 C.3       7 UNK         0.0273 
     46 CB         24.7119    3.1111   -8.3944 C.3       7 UNK        -0.1935 
     47 C          26.7266    2.7128   -9.8656 C.2       7 UNK         0.5018 
     48 O          26.7819    3.6047  -10.7134 O.2       7 UNK        -0.5186 
     49 N          27.0649    1.4374  -10.0984 N.am      8 UNK        -0.4240 
     50 CA         27.6154    0.9343  -11.3570 C.3       8 UNK         0.0235 
     51 CB         26.8489   -0.3322  -11.7739 C.3       8 UNK        -0.2000 
     52 C          29.1153    0.6329  -11.2258 C.2       8 UNK         0.4941 
     53 O          29.8771    0.9551  -12.1377 O.2       8 UNK        -0.5273 
     54 N          29.5132    0.0108  -10.1072 N.am      9 UNK        -0.4262 
     55 CA         30.8772   -0.4543   -9.8501 C.3       9 UNK         0.0264 
     56 CB         30.8435   -1.5249   -8.7457 C.3       9 UNK        -0.1955 
     57 C          31.8646    0.6603   -9.4702 C.2       9 UNK         0.5031 
     58 O          33.0706    0.4407   -9.5956 O.2       9 UNK        -0.5390 
     59 N          31.3636    1.8015   -8.9706 N.am      10 UNK        -0.4204 
     60 CA         32.0883    2.9650   -8.4316 C.3       10 UNK         0.0237 
     61 CB         33.0205    3.6034   -9.4807 C.3       10 UNK        -0.1985 
     62 C          32.8321    2.6851   -7.1114 C.2       10 UNK         0.4970 
     63 O          32.7183    3.4839   -6.1807 O.2       10 UNK        -0.4914 
     64 N          33.5527    1.5592   -7.0516 N.am      11 UNK        -0.4285 
     65 CA         34.3267    1.0549   -5.9081 C.3       11 UNK         0.1007 
     66 C          35.5076    1.9927   -5.5060 C.2       11 UNK         0.5703 
     67 N          36.0349    1.8820   -4.2931 N.am      11 UNK        -0.7361 
     68 O          35.9978    2.7881   -6.3066 O.2       11 UNK        -0.4986 
     69 C69        33.4220    0.6186   -4.7158 C.3       12 UNK        -0.0947 
     70 S70        32.1307   -0.5864   -5.1795 S.3       12 UNK        -0.2240 
     71 C71        33.0664   -2.1486   -5.1542 C.3       12 UNK         0.0194 
     72 H72        26.2696   -6.3866   -3.7280 H         1 UNK         0.0906 
     73 H73        24.5855   -6.3541   -3.2112 H         1 UNK         0.0906 
     74 H74        25.1417   -5.2332   -4.4564 H         1 UNK         0.0906 
     75 H75        27.5578   -4.2915   -3.3424 H         1 UNK         0.3140 
     76 H76        26.9553   -3.2481   -0.6458 H         1 UNK         0.1085 
     77 H77        29.2821   -2.4132   -0.6584 H         1 UNK         0.0836 
     78 H78        29.4816   -2.9089   -2.3169 H         1 UNK         0.0836 
     79 H79        31.8362   -4.3286   -0.8428 H         1 UNK         0.0731 
     80 H80        31.5216   -5.9990   -1.2448 H         1 UNK         0.0731 
     81 H81        32.7309   -3.0991   -2.6343 H         1 UNK         0.1312 
     82 H82        31.4052   -3.7008   -6.6607 H         1 UNK         0.1406 
     83 H83        29.8142   -6.1248   -3.4962 H         1 UNK         0.1631 
     84 H84        29.5457   -6.7299   -6.0164 H         1 UNK         0.0717 
     85 H85        29.8685   -5.4810   -7.1950 H         1 UNK         0.0717 
     86 H86        28.3979   -2.8417   -5.0621 H         1 UNK         0.0934 
     87 H87        29.0279   -3.0681   -6.6705 H         1 UNK         0.0934 
     88 H88        26.7045   -2.9044   -7.6189 H         1 UNK         0.0739 
     89 H89        25.9492   -1.9654   -4.8701 H         1 UNK         0.3093 
     90 H90        22.5495   -1.7019   -6.0124 H         1 UNK         0.0818 
     91 H91        22.0265   -2.6766   -3.8629 H         1 UNK         0.0819 
     92 H92        22.8345   -3.9271   -4.7936 H         1 UNK         0.0819 
     93 H93        23.7116   -3.0553   -3.5385 H         1 UNK         0.0819 
     94 H94        23.5993   -0.6220   -3.6622 H         1 UNK         0.3041 
     95 H95        24.5941    2.5567   -4.9536 H         1 UNK         0.0784 
     96 H96        22.1407    2.4367   -4.6700 H         1 UNK         0.0793 
     97 H97        22.3168    1.4855   -3.2054 H         1 UNK         0.0793 
     98 H98        22.8960    3.1484   -3.2536 H         1 UNK         0.0793 
     99 H99        25.9796    2.1365   -3.3263 H         1 UNK         0.3024 
    100 H100       27.1808    1.1098   -1.8685 H         1 UNK         0.1171 
    101 H101       25.8616    2.3430   -0.1272 H         1 UNK         0.0786 
    102 H102       27.0492    1.2789    0.6068 H         1 UNK         0.0786 
    103 H103       25.3467    0.8164    0.5758 H         1 UNK         0.0786 
    104 H104       26.7968   -1.0840   -0.1770 H         1 UNK         0.2977 
    105 H105       27.4942   -0.5390   -5.0408 H         1 UNK         0.3127 
    106 H106       29.4983    0.7254   -6.3354 H         1 UNK         0.0770 
    107 H107       27.6495    2.0291   -4.2864 H         1 UNK         0.0814 
    108 H108       29.3045    2.4928   -4.6403 H         1 UNK         0.0814 
    109 H109       28.9814    0.9301   -3.9102 H         1 UNK         0.0814 
    110 H110       26.0920    1.5044   -7.0031 H         1 UNK         0.2983 
    111 H111       26.6195    4.0679   -8.2191 H         1 UNK         0.0947 
    112 H112       24.3207    3.8401   -9.1053 H         1 UNK         0.0806 
    113 H113       24.3521    3.3980   -7.4065 H         1 UNK         0.0806 
    114 H114       24.2725    2.1453   -8.6467 H         1 UNK         0.0806 
    115 H115       27.0171    0.7772   -9.3279 H         1 UNK         0.3000 
    116 H116       27.4951    1.6760  -12.1498 H         1 UNK         0.0850 
    117 H117       27.2430   -0.7385  -12.7064 H         1 UNK         0.0810 
    118 H118       25.7922   -0.1179  -11.9349 H         1 UNK         0.0810 
    119 H119       26.9186   -1.1169  -11.0190 H         1 UNK         0.0810 
    120 H120       28.8110   -0.2451   -9.4133 H         1 UNK         0.3040 
    121 H121       31.2534   -0.9224  -10.7624 H         1 UNK         0.0766 
    122 H122       31.8391   -1.9337   -8.5674 H         1 UNK         0.0812 
    123 H123       30.1951   -2.3579   -9.0182 H         1 UNK         0.0812 
    124 H124       30.4877   -1.1169   -7.7994 H         1 UNK         0.0812 
    125 H125       30.3579    1.8633   -8.8601 H         1 UNK         0.3205 
    126 H126       31.3195    3.7036   -8.2006 H         1 UNK         0.0754 
    127 H127       33.4523    4.5299   -9.1001 H         1 UNK         0.0769 
    128 H128       32.4787    3.8486  -10.3942 H         1 UNK         0.0769 
    129 H129       33.8504    2.9490   -9.7479 H         1 UNK         0.0769 
    130 H130       33.5937    0.9998   -7.8993 H         1 UNK         0.2981 
    131 H131       34.8169    0.1562   -6.2831 H         1 UNK         0.0541 
    132 H132       36.8122    2.4734   -4.0436 H         1 UNK         0.3459 
    133 H133       35.6702    1.2248   -3.6224 H         1 UNK         0.3459 
    134 H134       32.9258    1.4883   -4.2824 H         1 UNK         0.0612 
    135 H135       34.0128    0.1813   -3.9103 H         1 UNK         0.0612 
    136 H136       33.9285   -2.0657   -4.4911 H         1 UNK         0.0624 
    137 H137       33.4633   -2.3438   -6.1515 H         1 UNK         0.0624 
@<TRIPOS>BOND
     1    1    2 1    
     2    1   72 1    
     3    1   73 1    
     4    1   74 1    
     5    2    3 2    
     6    2    4 am   BACKBONE|DICT|INTERRES
     7    4    5 1    
     8    4   75 1    
     9    5    6 1    
    10    5   35 1    
    11    5   76 1    
    12    6    7 1    
    13    6   77 1    
    14    6   78 1    
    15    7    8 1    
    16    8    9 1    
    17    8   79 1    
    18    8   80 1    
    19    9   10 ar   
    20    9   14 ar   
    21   10   11 ar   
    22   10   81 1    
    23   11   12 ar   
    24   11   71 1    
    25   12   13 ar   
    26   12   82 1    
    27   13   14 ar   
    28   13   15 1    
    29   14   83 1    
    30   15   16 1    
    31   15   84 1    
    32   15   85 1    
    33   16   17 1    
    34   17   18 1    
    35   17   86 1    
    36   17   87 1    
    37   18   19 1    
    38   18   37 1    
    39   18   88 1    
    40   19   20 am   BACKBONE|DICT|INTERRES
    41   19   89 1    
    42   20   21 2    
    43   20   22 1    
    44   22   23 1    
    45   22   24 1    
    46   22   90 1    
    47   23   91 1    
    48   23   92 1    
    49   23   93 1    
    50   24   25 am   BACKBONE|DICT|INTERRES
    51   24   94 1    
    52   25   26 2    
    53   25   27 1    
    54   27   28 1    
    55   27   29 1    
    56   27   95 1    
    57   28   96 1    
    58   28   97 1    
    59   28   98 1    
    60   29   30 am   BACKBONE|DICT|INTERRES
    61   29   99 1    
    62   30   31 2    
    63   30   32 1    
    64   32   33 1    
    65   32   34 1    
    66   32  100 1    
    67   33  101 1    
    68   33  102 1    
    69   33  103 1    
    70   34   35 am   BACKBONE|DICT|INTERRES
    71   34  104 1    
    72   35   36 2    
    73   37   38 2    
    74   37   39 am   BACKBONE|DICT|INTERRES
    75   39   40 1    
    76   39  105 1    
    77   40   41 1    
    78   40   42 1    
    79   40  106 1    
    80   41  107 1    
    81   41  108 1    
    82   41  109 1    
    83   42   43 2    
    84   42   44 am   BACKBONE|DICT|INTERRES
    85   44   45 1    
    86   44  110 1    
    87   45   46 1    
    88   45   47 1    
    89   45  111 1    
    90   46  112 1    
    91   46  113 1    
    92   46  114 1    
    93   47   48 2    
    94   47   49 am   BACKBONE|DICT|INTERRES
    95   49   50 1    
    96   49  115 1    
    97   50   51 1    
    98   50   52 1    
    99   50  116 1    
   100   51  117 1    
   101   51  118 1    
   102   51  119 1    
   103   52   53 2    
   104   52   54 am   BACKBONE|DICT|INTERRES
   105   54   55 1    
   106   54  120 1    
   107   55   56 1    
   108   55   57 1    
   109   55  121 1    
   110   56  122 1    
   111   56  123 1    
   112   56  124 1    
   113   57   58 2    
   114   57   59 am   BACKBONE|DICT|INTERRES
   115   59   60 1    
   116   59  125 1    
   117   60   61 1    
   118   60   62 1    
   119   60  126 1    
   120   61  127 1    
   121   61  128 1    
   122   61  129 1    
   123   62   63 2    
   124   62   64 am   BACKBONE|DICT|INTERRES
   125   64   65 1    
   126   64  130 1    
   127   65   66 1    
   128   65   69 1    
   129   65  131 1    
   130   66   67 am   BACKBONE|DICT|INTERRES
   131   66   68 2    
   132   67  132 1    
   133   67  133 1    
   134   69   70 1    
   135   69  134 1    
   136   69  135 1    
   137   70   71 1    
   138   71  136 1    
   139   71  137 1    
@<TRIPOS>SUBSTRUCTURE
     1 UNK         1 GROUP             0       ****    0 ROOT    
