@<TRIPOS>MOLECULE
3R137
137   139    1
SMALL
USER_CHARGES


@<TRIPOS>ATOM
      1 CA         25.0007   -5.3691   -3.6805 C.3       0 UNK        -0.2020 
      2 C          25.6335   -4.1145   -3.1007 C.2       0 UNK         0.4855 
      3 O          25.6217   -3.0669   -3.7491 O.2       0 UNK        -0.5197 
      4 N          26.1805   -4.2022   -1.8800 N.am      1 UNK        -0.4892 
      5 CA         26.8358   -3.1050   -1.1460 C.3       1 UNK         0.0835 
      6 C6         28.0187   -2.4817   -1.9460 C.3       12 UNK        -0.0855 
      7 S7         29.4821   -2.1370   -0.9143 S.3       12 UNK        -0.2931 
      8 C8         30.5338   -3.5825   -1.2664 C.3       12 UNK         0.0378 
      9 C9         31.0036   -3.6189   -2.7150 C.ar      12 UNK        -0.0802 
     10 C10        32.0009   -2.7434   -3.1530 C.ar      12 UNK        -0.0944 
     11 C11        32.4563   -2.7860   -4.4745 C.ar      12 UNK        -0.0787 
     12 C12        31.8993   -3.7159   -5.3614 C.ar      12 UNK        -0.0862 
     13 C13        30.8893   -4.5867   -4.9399 C.ar      12 UNK        -0.0733 
     14 C14        30.4542   -4.5400   -3.6124 C.ar      12 UNK        -0.0832 
     15 C15        30.2883   -5.6010   -5.9057 C.3       12 UNK         0.0240 
     16 S16        29.2974   -4.8293   -7.2271 S.3       12 UNK        -0.2522 
     17 C17        27.9150   -4.0717   -6.3029 C.3       12 UNK        -0.0967 
     18 CA         27.4106   -2.7574   -6.9505 C.3       5 UNK         0.0660 
     19 N          26.1304   -2.3243   -6.3782 N.am      5 UNK        -0.4015 
     20 C          25.3571   -1.3468   -6.8716 C.2       4 UNK         0.4946 
     21 O          25.6655   -0.6547   -7.8411 O.2       4 UNK        -0.5353 
     22 CA         24.0421   -1.0613   -6.1383 C.3       4 UNK         0.0277 
     23 CB         23.1626   -2.3171   -5.9928 C.3       4 UNK        -0.1981 
     24 N          24.3241   -0.4791   -4.8251 N.am      4 UNK        -0.4209 
     25 C          24.1836    0.8244   -4.5394 C.2       3 UNK         0.4942 
     26 O          23.7565    1.6518   -5.3462 O.2       3 UNK        -0.5208 
     27 CA         24.6031    1.3003   -3.1319 C.3       3 UNK         0.0250 
     28 CB         23.9333    2.6321   -2.7304 C.3       3 UNK        -0.1990 
     29 N          24.4263    0.3026   -2.0712 N.am      3 UNK        -0.4232 
     30 C          23.3003   -0.3159   -1.6856 C.2       2 UNK         0.4993 
     31 O          22.2011   -0.1325   -2.2109 O.2       2 UNK        -0.5286 
     32 CA         23.4446   -1.3267   -0.5248 C.3       2 UNK         0.0209 
     33 CB         22.1459   -2.1107   -0.2558 C.3       2 UNK        -0.1931 
     34 N          24.5319   -2.2834   -0.7603 N.am      2 UNK        -0.4546 
     35 C          25.8433   -2.0256   -0.6485 C.2       1 UNK         0.5154 
     36 O          26.2685   -0.9513   -0.2205 O.2       1 UNK        -0.5181 
     37 C          28.4634   -1.6346   -6.8926 C.2       5 UNK         0.5014 
     38 O          29.1052   -1.3490   -7.9045 O.2       5 UNK        -0.5248 
     39 N          28.5664   -0.9776   -5.7281 N.am      6 UNK        -0.4434 
     40 CA         29.4730    0.1465   -5.4866 C.3       6 UNK         0.0363 
     41 CB         29.4261    0.5318   -4.0007 C.3       6 UNK        -0.1936 
     42 C          29.1961    1.3690   -6.3791 C.2       6 UNK         0.5081 
     43 O          30.1354    2.0900   -6.7160 O.2       6 UNK        -0.5248 
     44 N          27.9267    1.5695   -6.7588 N.am      7 UNK        -0.4718 
     45 CA         27.5057    2.6075   -7.6974 C.3       7 UNK         0.0273 
     46 CB         26.0261    2.9508   -7.4660 C.3       7 UNK        -0.1935 
     47 C          27.7506    2.1822   -9.1522 C.2       7 UNK         0.5018 
     48 O          28.3133    2.9657   -9.9160 O.2       7 UNK        -0.5186 
     49 N          27.3449    0.9527   -9.5058 N.am      8 UNK        -0.4240 
     50 CA         27.4631    0.3821  -10.8517 C.3       8 UNK         0.0235 
     51 CB         26.7330   -0.9695  -10.9086 C.3       8 UNK        -0.2000 
     52 C          28.9153    0.2310  -11.3302 C.2       8 UNK         0.4941 
     53 O          29.2154    0.5933  -12.4684 O.2       8 UNK        -0.5273 
     54 N          29.7913   -0.2778  -10.4535 N.am      9 UNK        -0.4262 
     55 CA         31.2280   -0.4085  -10.7115 C.3       9 UNK         0.0264 
     56 CB         31.7789   -1.5776   -9.8794 C.3       9 UNK        -0.1955 
     57 C          32.0113    0.8880  -10.4289 C.2       9 UNK         0.5031 
     58 O          33.1898    0.9569  -10.7800 O.2       9 UNK        -0.5390 
     59 N          31.3611    1.8761   -9.7927 N.am      10 UNK        -0.4204 
     60 CA         31.8816    3.1876   -9.3780 C.3       10 UNK         0.0237 
     61 CB         32.2600    4.0418  -10.6065 C.3       10 UNK        -0.1985 
     62 C          33.0138    3.1222   -8.3303 C.2       10 UNK         0.4970 
     63 O          33.7385    4.1037   -8.1559 O.2       10 UNK        -0.4914 
     64 N          33.1408    1.9804   -7.6465 N.am      11 UNK        -0.4285 
     65 CA         34.1109    1.7214   -6.5758 C.3       11 UNK         0.1007 
     66 C          33.6665    2.2261   -5.1728 C.2       11 UNK         0.5703 
     67 N          32.4229    2.6487   -4.9767 N.am      11 UNK        -0.7361 
     68 O          34.4760    2.2544   -4.2488 O.2       11 UNK        -0.4986 
     69 C69        34.5433    0.2312   -6.5663 C.3       12 UNK        -0.0947 
     70 S70        33.1407   -0.9285   -6.4283 S.3       12 UNK        -0.2240 
     71 C71        33.5720   -1.8483   -4.9214 C.3       12 UNK         0.0194 
     72 H72        25.4654   -5.6208   -4.6326 H         1 UNK         0.0906 
     73 H73        25.1087   -6.2252   -3.0151 H         1 UNK         0.0906 
     74 H74        23.9374   -5.2059   -3.8534 H         1 UNK         0.0906 
     75 H75        26.1516   -5.0871   -1.3903 H         1 UNK         0.3140 
     76 H76        27.2330   -3.5685   -0.2414 H         1 UNK         0.1085 
     77 H77        28.3180   -3.1414   -2.7576 H         1 UNK         0.0836 
     78 H78        27.7218   -1.5586   -2.4468 H         1 UNK         0.0836 
     79 H79        31.4032   -3.5536   -0.6078 H         1 UNK         0.0731 
     80 H80        29.9894   -4.4930   -1.0105 H         1 UNK         0.0731 
     81 H81        32.4262   -2.0329   -2.4571 H         1 UNK         0.1312 
     82 H82        32.2471   -3.7580   -6.3847 H         1 UNK         0.1406 
     83 H83        29.6849   -5.2218   -3.2757 H         1 UNK         0.1631 
     84 H84        29.6673   -6.3250   -5.3759 H         1 UNK         0.0717 
     85 H85        31.0959   -6.1729   -6.3648 H         1 UNK         0.0717 
     86 H86        27.1078   -4.8047   -6.2804 H         1 UNK         0.0934 
     87 H87        28.1972   -3.9044   -5.2628 H         1 UNK         0.0934 
     88 H88        27.2211   -2.9613   -8.0067 H         1 UNK         0.0739 
     89 H89        25.8466   -2.7667   -5.5060 H         1 UNK         0.3093 
     90 H90        23.4817   -0.3565   -6.7565 H         1 UNK         0.0818 
     91 H91        22.1969   -2.0655   -5.5541 H         1 UNK         0.0819 
     92 H92        22.9664   -2.7685   -6.9662 H         1 UNK         0.0819 
     93 H93        23.6163   -3.0824   -5.3658 H         1 UNK         0.0819 
     94 H94        24.6918   -1.1083   -4.1210 H         1 UNK         0.3041 
     95 H95        25.6770    1.4826   -3.1935 H         1 UNK         0.0784 
     96 H96        24.1768    3.4254   -3.4383 H         1 UNK         0.0793 
     97 H97        22.8467    2.5432   -2.7017 H         1 UNK         0.0793 
     98 H98        24.2687    2.9651   -1.7482 H         1 UNK         0.0793 
     99 H99        25.2642    0.0649   -1.5468 H         1 UNK         0.3024 
    100 H100       23.6761   -0.7468    0.3719 H         1 UNK         0.1171 
    101 H101       21.8450   -2.7023   -1.1213 H         1 UNK         0.0786 
    102 H102       21.3224   -1.4354   -0.0191 H         1 UNK         0.0786 
    103 H103       22.2589   -2.7874    0.5915 H         1 UNK         0.0786 
    104 H104       24.2693   -3.1745   -1.1556 H         1 UNK         0.2977 
    105 H105       27.9904   -1.2754   -4.9557 H         1 UNK         0.3127 
    106 H106       30.4825   -0.1953   -5.7145 H         1 UNK         0.0770 
    107 H107       29.7667   -0.2906   -3.3718 H         1 UNK         0.0814 
    108 H108       28.4211    0.8113   -3.6829 H         1 UNK         0.0814 
    109 H109       30.0805    1.3796   -3.7957 H         1 UNK         0.0814 
    110 H110       27.2259    0.9018   -6.4728 H         1 UNK         0.2983 
    111 H111       28.0920    3.5105   -7.5103 H         1 UNK         0.0947 
    112 H112       25.6975    3.7373   -8.1464 H         1 UNK         0.0806 
    113 H113       25.8569    3.3103   -6.4508 H         1 UNK         0.0806 
    114 H114       25.3763    2.0896   -7.6263 H         1 UNK         0.0806 
    115 H115       26.8594    0.3794   -8.8181 H         1 UNK         0.3000 
    116 H116       26.9618    1.0664  -11.5395 H         1 UNK         0.0850 
    117 H117       26.7970   -1.4085  -11.9052 H         1 UNK         0.0810 
    118 H118       25.6750   -0.8581  -10.6708 H         1 UNK         0.0810 
    119 H119       27.1588   -1.6868  -10.2060 H         1 UNK         0.0810 
    120 H120       29.4609   -0.5910   -9.5399 H         1 UNK         0.3040 
    121 H121       31.3812   -0.6502  -11.7655 H         1 UNK         0.0766 
    122 H122       32.8530   -1.6988  -10.0263 H         1 UNK         0.0812 
    123 H123       31.3042   -2.5186  -10.1572 H         1 UNK         0.0812 
    124 H124       31.6089   -1.4254   -8.8146 H         1 UNK         0.0812 
    125 H125       30.3895    1.7152   -9.5635 H         1 UNK         0.3205 
    126 H126       31.0498    3.6867   -8.8785 H         1 UNK         0.0754 
    127 H127       32.4972    5.0658  -10.3155 H         1 UNK         0.0769 
    128 H128       31.4374    4.0929  -11.3201 H         1 UNK         0.0769 
    129 H129       33.1314    3.6416  -11.1256 H         1 UNK         0.0769 
    130 H130       32.4744    1.2420   -7.8164 H         1 UNK         0.2981 
    131 H131       35.0095    2.2962   -6.8072 H         1 UNK         0.0541 
    132 H132       31.7309    2.5867   -5.7168 H         1 UNK         0.3459 
    133 H133       32.1596    2.9904   -4.0673 H         1 UNK         0.3459 
    134 H134       35.2693    0.0428   -5.7734 H         1 UNK         0.0612 
    135 H135       35.0632    0.0016   -7.4975 H         1 UNK         0.0612 
    136 H136       34.4769   -2.4297   -5.1024 H         1 UNK         0.0624 
    137 H137       33.8086   -1.1320   -4.1328 H         1 UNK         0.0624 
@<TRIPOS>BOND
     1    1    2 1    
     2    1   72 1    
     3    1   73 1    
     4    1   74 1    
     5    2    3 2    
     6    2    4 am   BACKBONE|DICT|INTERRES
     7    4    5 1    
     8    4   75 1    
     9    5    6 1    
    10    5   35 1    
    11    5   76 1    
    12    6    7 1    
    13    6   77 1    
    14    6   78 1    
    15    7    8 1    
    16    8    9 1    
    17    8   79 1    
    18    8   80 1    
    19    9   10 ar   
    20    9   14 ar   
    21   10   11 ar   
    22   10   81 1    
    23   11   12 ar   
    24   11   71 1    
    25   12   13 ar   
    26   12   82 1    
    27   13   14 ar   
    28   13   15 1    
    29   14   83 1    
    30   15   16 1    
    31   15   84 1    
    32   15   85 1    
    33   16   17 1    
    34   17   18 1    
    35   17   86 1    
    36   17   87 1    
    37   18   19 1    
    38   18   37 1    
    39   18   88 1    
    40   19   20 am   BACKBONE|DICT|INTERRES
    41   19   89 1    
    42   20   21 2    
    43   20   22 1    
    44   22   23 1    
    45   22   24 1    
    46   22   90 1    
    47   23   91 1    
    48   23   92 1    
    49   23   93 1    
    50   24   25 am   BACKBONE|DICT|INTERRES
    51   24   94 1    
    52   25   26 2    
    53   25   27 1    
    54   27   28 1    
    55   27   29 1    
    56   27   95 1    
    57   28   96 1    
    58   28   97 1    
    59   28   98 1    
    60   29   30 am   BACKBONE|DICT|INTERRES
    61   29   99 1    
    62   30   31 2    
    63   30   32 1    
    64   32   33 1    
    65   32   34 1    
    66   32  100 1    
    67   33  101 1    
    68   33  102 1    
    69   33  103 1    
    70   34   35 am   BACKBONE|DICT|INTERRES
    71   34  104 1    
    72   35   36 2    
    73   37   38 2    
    74   37   39 am   BACKBONE|DICT|INTERRES
    75   39   40 1    
    76   39  105 1    
    77   40   41 1    
    78   40   42 1    
    79   40  106 1    
    80   41  107 1    
    81   41  108 1    
    82   41  109 1    
    83   42   43 2    
    84   42   44 am   BACKBONE|DICT|INTERRES
    85   44   45 1    
    86   44  110 1    
    87   45   46 1    
    88   45   47 1    
    89   45  111 1    
    90   46  112 1    
    91   46  113 1    
    92   46  114 1    
    93   47   48 2    
    94   47   49 am   BACKBONE|DICT|INTERRES
    95   49   50 1    
    96   49  115 1    
    97   50   51 1    
    98   50   52 1    
    99   50  116 1    
   100   51  117 1    
   101   51  118 1    
   102   51  119 1    
   103   52   53 2    
   104   52   54 am   BACKBONE|DICT|INTERRES
   105   54   55 1    
   106   54  120 1    
   107   55   56 1    
   108   55   57 1    
   109   55  121 1    
   110   56  122 1    
   111   56  123 1    
   112   56  124 1    
   113   57   58 2    
   114   57   59 am   BACKBONE|DICT|INTERRES
   115   59   60 1    
   116   59  125 1    
   117   60   61 1    
   118   60   62 1    
   119   60  126 1    
   120   61  127 1    
   121   61  128 1    
   122   61  129 1    
   123   62   63 2    
   124   62   64 am   BACKBONE|DICT|INTERRES
   125   64   65 1    
   126   64  130 1    
   127   65   66 1    
   128   65   69 1    
   129   65  131 1    
   130   66   67 am   BACKBONE|DICT|INTERRES
   131   66   68 2    
   132   67  132 1    
   133   67  133 1    
   134   69   70 1    
   135   69  134 1    
   136   69  135 1    
   137   70   71 1    
   138   71  136 1    
   139   71  137 1    
@<TRIPOS>SUBSTRUCTURE
     1 UNK         1 GROUP             0       ****    0 ROOT    
