@<TRIPOS>MOLECULE
3R137
137   139    1
SMALL
USER_CHARGES


@<TRIPOS>ATOM
      1 CA         25.4563   -6.6211    2.0048 C.3       0 UNK        -0.2020 
      2 C          25.9670   -5.1921    1.8961 C.2       0 UNK         0.4855 
      3 O          25.4739   -4.3119    2.6016 O.2       0 UNK        -0.5197 
      4 N          26.9549   -4.9571    1.0216 N.am      1 UNK        -0.4892 
      5 CA         27.5487   -3.6402    0.7554 C.3       1 UNK         0.0835 
      6 C6         28.8767   -3.7886   -0.0302 C.3       12 UNK        -0.0855 
      7 S7         29.9533   -2.3129    0.0120 S.3       12 UNK        -0.2931 
      8 C8         29.4689   -1.3951   -1.4886 C.3       12 UNK         0.0378 
      9 C9         29.9462   -2.0505   -2.7773 C.ar      12 UNK        -0.0802 
     10 C10        31.1516   -1.6594   -3.3645 C.ar      12 UNK        -0.0944 
     11 C11        31.5434   -2.1832   -4.6010 C.ar      12 UNK        -0.0787 
     12 C12        30.7403   -3.1428   -5.2297 C.ar      12 UNK        -0.0862 
     13 C13        29.5437   -3.5638   -4.6383 C.ar      12 UNK        -0.0733 
     14 C14        29.1476   -2.9952   -3.4252 C.ar      12 UNK        -0.0832 
     15 C15        28.7055   -4.6686   -5.2741 C.3       12 UNK         0.0240 
     16 S16        26.9232   -4.2697   -5.3613 S.3       12 UNK        -0.2522 
     17 C17        26.6757   -3.9415   -7.1371 C.3       12 UNK        -0.0967 
     18 CA         26.4600   -2.4565   -7.5077 C.3       5 UNK         0.0660 
     19 N          25.3008   -1.8418   -6.8566 N.am      5 UNK        -0.4015 
     20 C          24.6669   -0.7723   -7.3604 C.2       4 UNK         0.4946 
     21 O          24.9818   -0.2275   -8.4201 O.2       4 UNK        -0.5353 
     22 CA         23.5144   -0.1893   -6.5284 C.3       4 UNK         0.0277 
     23 CB         22.2726   -1.0935   -6.5979 C.3       4 UNK        -0.1981 
     24 N          23.8791    0.0473   -5.1297 N.am      4 UNK        -0.4209 
     25 C          24.8413    0.8876   -4.7205 C.2       3 UNK         0.4942 
     26 O          25.5378    1.5525   -5.4864 O.2       3 UNK        -0.5208 
     27 CA         25.0758    1.0085   -3.2040 C.3       3 UNK         0.0250 
     28 CB         24.3375    2.2352   -2.6453 C.3       3 UNK        -0.1990 
     29 N          24.6847   -0.1829   -2.4429 N.am      3 UNK        -0.4232 
     30 C          25.3079   -1.3657   -2.5249 C.2       2 UNK         0.4993 
     31 O          26.2517   -1.5856   -3.2848 O.2       2 UNK        -0.5286 
     32 CA         24.7472   -2.5034   -1.6543 C.3       2 UNK         0.0209 
     33 CB         23.9644   -3.5023   -2.5226 C.3       2 UNK        -0.1931 
     34 N          25.7924   -3.2217   -0.9197 N.am      2 UNK        -0.4546 
     35 C          26.5438   -2.6931    0.0588 C.2       1 UNK         0.5154 
     36 O          26.4349   -1.5285    0.4467 O.2       1 UNK        -0.5181 
     37 C          27.7328   -1.6033   -7.3588 C.2       5 UNK         0.5014 
     38 O          28.5658   -1.6338   -8.2636 O.2       5 UNK        -0.5248 
     39 N          27.8409   -0.8165   -6.2757 N.am      6 UNK        -0.4434 
     40 CA         28.9143    0.1614   -6.0791 C.3       6 UNK         0.0363 
     41 CB         28.8204    0.7826   -4.6761 C.3       6 UNK        -0.1936 
     42 C          28.8958    1.2572   -7.1560 C.2       6 UNK         0.5081 
     43 O          29.9359    1.5531   -7.7455 O.2       6 UNK        -0.5248 
     44 N          27.7013    1.8041   -7.4239 N.am      7 UNK        -0.4718 
     45 CA         27.4483    2.7815   -8.4828 C.3       7 UNK         0.0273 
     46 CB         26.0210    3.3332   -8.3424 C.3       7 UNK        -0.1935 
     47 C          27.6763    2.2094   -9.8912 C.2       7 UNK         0.5018 
     48 O          28.2257    2.9136  -10.7384 O.2       7 UNK        -0.5186 
     49 N          27.2771    0.9470  -10.1109 N.am      8 UNK        -0.4240 
     50 CA         27.5031    0.2187  -11.3633 C.3       8 UNK         0.0235 
     51 CB         26.6899   -1.0851  -11.3696 C.3       8 UNK        -0.2000 
     52 C          28.9925   -0.0666  -11.6244 C.2       8 UNK         0.4941 
     53 O          29.4511    0.1181  -12.7524 O.2       8 UNK        -0.5273 
     54 N          29.7209   -0.4961  -10.5832 N.am      9 UNK        -0.4262 
     55 CA         31.1666   -0.7316  -10.6190 C.3       9 UNK         0.0264 
     56 CB         31.5891   -1.5126   -9.3624 C.3       9 UNK        -0.1955 
     57 C          31.9876    0.5636  -10.7341 C.2       9 UNK         0.5031 
     58 O          33.0691    0.5332  -11.3231 O.2       9 UNK        -0.5390 
     59 N          31.4721    1.6569  -10.1503 N.am      10 UNK        -0.4204 
     60 CA         32.1066    2.9713   -9.9929 C.3       10 UNK         0.0237 
     61 CB         32.3381    3.6521  -11.3587 C.3       10 UNK        -0.1985 
     62 C          33.3749    2.8974   -9.1195 C.2       10 UNK         0.4970 
     63 O          34.3585    3.5888   -9.3900 O.2       10 UNK        -0.4914 
     64 N          33.3238    2.0421   -8.0912 N.am      11 UNK        -0.4285 
     65 CA         34.4177    1.7669   -7.1488 C.3       11 UNK         0.1007 
     66 C          34.6404    2.8590   -6.0611 C.2       11 UNK         0.5703 
     67 N          33.7664    3.8491   -5.9204 N.am      11 UNK        -0.7361 
     68 O          35.6368    2.8156   -5.3431 O.2       11 UNK        -0.4986 
     69 C69        34.2865    0.3425   -6.5442 C.3       12 UNK        -0.0947 
     70 S70        32.6836    0.0588   -5.7244 S.3       12 UNK        -0.2240 
     71 C71        32.8264   -1.6928   -5.2569 C.3       12 UNK         0.0194 
     72 H72        25.9846   -7.2970    1.3326 H         1 UNK         0.0906 
     73 H73        25.5834   -6.9884    3.0229 H         1 UNK         0.0906 
     74 H74        24.3954   -6.6596    1.7589 H         1 UNK         0.0906 
     75 H75        27.3256   -5.7269    0.4817 H         1 UNK         0.3140 
     76 H76        27.7832   -3.1948    1.7253 H         1 UNK         0.1085 
     77 H77        28.7002   -4.1235   -1.0492 H         1 UNK         0.0836 
     78 H78        29.4658   -4.5875    0.4236 H         1 UNK         0.0836 
     79 H79        28.3883   -1.2606   -1.5194 H         1 UNK         0.0731 
     80 H80        29.8830   -0.3880   -1.4199 H         1 UNK         0.0731 
     81 H81        31.7680   -0.9140   -2.8808 H         1 UNK         0.1312 
     82 H82        31.0479   -3.5624   -6.1777 H         1 UNK         0.1406 
     83 H83        28.1997   -3.2821   -2.9936 H         1 UNK         0.1631 
     84 H84        28.8195   -5.5667   -4.6658 H         1 UNK         0.0717 
     85 H85        29.0908   -4.9276   -6.2606 H         1 UNK         0.0717 
     86 H86        27.4989   -4.3577   -7.7201 H         1 UNK         0.0934 
     87 H87        25.7989   -4.5122   -7.4471 H         1 UNK         0.0934 
     88 H88        26.2406   -2.4634   -8.5768 H         1 UNK         0.0739 
     89 H89        25.0228   -2.2231   -5.9636 H         1 UNK         0.3093 
     90 H90        23.2542    0.7769   -6.9664 H         1 UNK         0.0818 
     91 H91        21.4178   -0.6308   -6.1042 H         1 UNK         0.0819 
     92 H92        21.9833   -1.2785   -7.6335 H         1 UNK         0.0819 
     93 H93        22.4456   -2.0633   -6.1297 H         1 UNK         0.0819 
     94 H94        23.3513   -0.4489   -4.4274 H         1 UNK         0.3041 
     95 H95        26.1466    1.1601   -3.0534 H         1 UNK         0.0784 
     96 H96        24.6319    3.1420   -3.1760 H         1 UNK         0.0793 
     97 H97        23.2556    2.1371   -2.7440 H         1 UNK         0.0793 
     98 H98        24.5674    2.3913   -1.5911 H         1 UNK         0.0793 
     99 H99        23.9132   -0.0752   -1.7997 H         1 UNK         0.3024 
    100 H100       24.0624   -2.0783   -0.9170 H         1 UNK         0.1171 
    101 H101       23.1592   -3.0049   -3.0650 H         1 UNK         0.0786 
    102 H102       23.5084   -4.2846   -1.9157 H         1 UNK         0.0786 
    103 H103       24.6068   -3.9826   -3.2620 H         1 UNK         0.0786 
    104 H104       25.9442   -4.1860   -1.1749 H         1 UNK         0.2977 
    105 H105       27.1373   -0.8792   -5.5521 H         1 UNK         0.3127 
    106 H106       29.8560   -0.3820   -6.1577 H         1 UNK         0.0770 
    107 H107       28.0366    1.5366   -4.6099 H         1 UNK         0.0814 
    108 H108       29.7597    1.2692   -4.4113 H         1 UNK         0.0814 
    109 H109       28.6145    0.0311   -3.9168 H         1 UNK         0.0814 
    110 H110       26.9040    1.5367   -6.8508 H         1 UNK         0.2983 
    111 H111       28.1499    3.6072   -8.3458 H         1 UNK         0.0947 
    112 H112       25.8115    4.0783   -9.1111 H         1 UNK         0.0806 
    113 H113       25.8766    3.8145   -7.3749 H         1 UNK         0.0806 
    114 H114       25.2726    2.5452   -8.4361 H         1 UNK         0.0806 
    115 H115       26.7741    0.4629   -9.3751 H         1 UNK         0.3000 
    116 H116       27.1373    0.8473  -12.1782 H         1 UNK         0.0850 
    117 H117       26.7525   -1.5744  -12.3424 H         1 UNK         0.0810 
    118 H118       25.6349   -0.9002  -11.1657 H         1 UNK         0.0810 
    119 H119       27.0584   -1.7938  -10.6290 H         1 UNK         0.0810 
    120 H120       29.2512   -0.7039   -9.7028 H         1 UNK         0.3040 
    121 H121       31.3889   -1.3446  -11.4950 H         1 UNK         0.0766 
    122 H122       32.6632   -1.7031   -9.3594 H         1 UNK         0.0812 
    123 H123       31.0876   -2.4790   -9.3094 H         1 UNK         0.0812 
    124 H124       31.3519   -0.9657   -8.4486 H         1 UNK         0.0812 
    125 H125       30.6179    1.5354   -9.6130 H         1 UNK         0.3205 
    126 H126       31.3929    3.5827   -9.4387 H         1 UNK         0.0754 
    127 H127       32.6763    4.6809  -11.2294 H         1 UNK         0.0769 
    128 H128       31.4185    3.6844  -11.9435 H         1 UNK         0.0769 
    129 H129       33.0941    3.1341  -11.9495 H         1 UNK         0.0769 
    130 H130       32.4596    1.5486   -7.9115 H         1 UNK         0.2981 
    131 H131       35.3404    1.7662   -7.7321 H         1 UNK         0.0541 
    132 H132       32.9446    3.8892   -6.5006 H         1 UNK         0.3459 
    133 H133       33.9262    4.5532   -5.2176 H         1 UNK         0.3459 
    134 H134       35.0917    0.1399   -5.8356 H         1 UNK         0.0612 
    135 H135       34.3934   -0.3978   -7.3386 H         1 UNK         0.0612 
    136 H136       33.0579   -2.2828   -6.1451 H         1 UNK         0.0624 
    137 H137       33.6613   -1.8181   -4.5662 H         1 UNK         0.0624 
@<TRIPOS>BOND
     1    1    2 1    
     2    1   72 1    
     3    1   73 1    
     4    1   74 1    
     5    2    3 2    
     6    2    4 am   BACKBONE|DICT|INTERRES
     7    4    5 1    
     8    4   75 1    
     9    5    6 1    
    10    5   35 1    
    11    5   76 1    
    12    6    7 1    
    13    6   77 1    
    14    6   78 1    
    15    7    8 1    
    16    8    9 1    
    17    8   79 1    
    18    8   80 1    
    19    9   10 ar   
    20    9   14 ar   
    21   10   11 ar   
    22   10   81 1    
    23   11   12 ar   
    24   11   71 1    
    25   12   13 ar   
    26   12   82 1    
    27   13   14 ar   
    28   13   15 1    
    29   14   83 1    
    30   15   16 1    
    31   15   84 1    
    32   15   85 1    
    33   16   17 1    
    34   17   18 1    
    35   17   86 1    
    36   17   87 1    
    37   18   19 1    
    38   18   37 1    
    39   18   88 1    
    40   19   20 am   BACKBONE|DICT|INTERRES
    41   19   89 1    
    42   20   21 2    
    43   20   22 1    
    44   22   23 1    
    45   22   24 1    
    46   22   90 1    
    47   23   91 1    
    48   23   92 1    
    49   23   93 1    
    50   24   25 am   BACKBONE|DICT|INTERRES
    51   24   94 1    
    52   25   26 2    
    53   25   27 1    
    54   27   28 1    
    55   27   29 1    
    56   27   95 1    
    57   28   96 1    
    58   28   97 1    
    59   28   98 1    
    60   29   30 am   BACKBONE|DICT|INTERRES
    61   29   99 1    
    62   30   31 2    
    63   30   32 1    
    64   32   33 1    
    65   32   34 1    
    66   32  100 1    
    67   33  101 1    
    68   33  102 1    
    69   33  103 1    
    70   34   35 am   BACKBONE|DICT|INTERRES
    71   34  104 1    
    72   35   36 2    
    73   37   38 2    
    74   37   39 am   BACKBONE|DICT|INTERRES
    75   39   40 1    
    76   39  105 1    
    77   40   41 1    
    78   40   42 1    
    79   40  106 1    
    80   41  107 1    
    81   41  108 1    
    82   41  109 1    
    83   42   43 2    
    84   42   44 am   BACKBONE|DICT|INTERRES
    85   44   45 1    
    86   44  110 1    
    87   45   46 1    
    88   45   47 1    
    89   45  111 1    
    90   46  112 1    
    91   46  113 1    
    92   46  114 1    
    93   47   48 2    
    94   47   49 am   BACKBONE|DICT|INTERRES
    95   49   50 1    
    96   49  115 1    
    97   50   51 1    
    98   50   52 1    
    99   50  116 1    
   100   51  117 1    
   101   51  118 1    
   102   51  119 1    
   103   52   53 2    
   104   52   54 am   BACKBONE|DICT|INTERRES
   105   54   55 1    
   106   54  120 1    
   107   55   56 1    
   108   55   57 1    
   109   55  121 1    
   110   56  122 1    
   111   56  123 1    
   112   56  124 1    
   113   57   58 2    
   114   57   59 am   BACKBONE|DICT|INTERRES
   115   59   60 1    
   116   59  125 1    
   117   60   61 1    
   118   60   62 1    
   119   60  126 1    
   120   61  127 1    
   121   61  128 1    
   122   61  129 1    
   123   62   63 2    
   124   62   64 am   BACKBONE|DICT|INTERRES
   125   64   65 1    
   126   64  130 1    
   127   65   66 1    
   128   65   69 1    
   129   65  131 1    
   130   66   67 am   BACKBONE|DICT|INTERRES
   131   66   68 2    
   132   67  132 1    
   133   67  133 1    
   134   69   70 1    
   135   69  134 1    
   136   69  135 1    
   137   70   71 1    
   138   71  136 1    
   139   71  137 1    
@<TRIPOS>SUBSTRUCTURE
     1 UNK         1 GROUP             0       ****    0 ROOT    
