@<TRIPOS>MOLECULE
3R137
137   139    1
SMALL
USER_CHARGES


@<TRIPOS>ATOM
      1 CA         26.6091   -6.3424   -3.7767 C.3       0 UNK        -0.2020 
      2 C          26.2550   -5.9996   -2.3375 C.2       0 UNK         0.4855 
      3 O          25.2210   -6.4429   -1.8382 O.2       0 UNK        -0.5197 
      4 N          27.1081   -5.2157   -1.6659 N.am      1 UNK        -0.4892 
      5 CA         26.9178   -4.7454   -0.2869 C.3       1 UNK         0.0835 
      6 C6         28.2468   -4.2538    0.3461 C.3       12 UNK        -0.0855 
      7 S7         29.1253   -3.0072   -0.6636 S.3       12 UNK        -0.2931 
      8 C8         30.5005   -3.9968   -1.3282 C.3       12 UNK         0.0378 
      9 C9         31.0402   -3.3750   -2.6052 C.ar      12 UNK        -0.0802 
     10 C10        32.1669   -2.5490   -2.5743 C.ar      12 UNK        -0.0944 
     11 C11        32.6598   -1.9864   -3.7548 C.ar      12 UNK        -0.0787 
     12 C12        32.0038   -2.2371   -4.9646 C.ar      12 UNK        -0.0862 
     13 C13        30.8704   -3.0544   -5.0123 C.ar      12 UNK        -0.0733 
     14 C14        30.4069   -3.6339   -3.8241 C.ar      12 UNK        -0.0832 
     15 C15        30.2060   -3.2917   -6.3709 C.3       12 UNK         0.0240 
     16 S16        28.5639   -4.0994   -6.3433 S.3       12 UNK        -0.2522 
     17 C17        27.5100   -2.8363   -5.5526 C.3       12 UNK        -0.0967 
     18 CA         26.8139   -1.9217   -6.5920 C.3       5 UNK         0.0660 
     19 N          25.4907   -1.4760   -6.1524 N.am      5 UNK        -0.4015 
     20 C          24.5593   -0.9691   -6.9768 C.2       4 UNK         0.4946 
     21 O          24.6897   -0.9122   -8.1997 O.2       4 UNK        -0.5353 
     22 CA         23.2778   -0.3969   -6.3400 C.3       4 UNK         0.0277 
     23 CB         22.1786   -1.4700   -6.2895 C.3       4 UNK        -0.1981 
     24 N          23.4854    0.1480   -4.9962 N.am      4 UNK        -0.4209 
     25 C          24.3136    1.1594   -4.6980 C.2       3 UNK         0.4942 
     26 O          24.9144    1.8170   -5.5457 O.2       3 UNK        -0.5208 
     27 CA         24.5683    1.4516   -3.2081 C.3       3 UNK         0.0250 
     28 CB         23.7257    2.6516   -2.7481 C.3       3 UNK        -0.1990 
     29 N          24.3294    0.3147   -2.3083 N.am      3 UNK        -0.4232 
     30 C          24.9360   -0.8793   -2.3763 C.2       2 UNK         0.4993 
     31 O          25.7476   -1.1952   -3.2532 O.2       2 UNK        -0.5286 
     32 CA         24.5083   -1.9101   -1.3281 C.3       2 UNK         0.0209 
     33 CB         23.1561   -2.5441   -1.7047 C.3       2 UNK        -0.1931 
     34 N          25.5268   -2.9501   -1.2430 N.am      2 UNK        -0.4546 
     35 C          25.7980   -3.6884   -0.1602 C.2       1 UNK         0.5154 
     36 O          25.1974   -3.5716    0.9098 O.2       1 UNK        -0.5181 
     37 C          27.6911   -0.7128   -6.9621 C.2       5 UNK         0.5014 
     38 O          28.2789   -0.7027   -8.0421 O.2       5 UNK        -0.5248 
     39 N          27.7226    0.3044   -6.0872 N.am      6 UNK        -0.4434 
     40 CA         28.4628    1.5539   -6.2935 C.3       6 UNK         0.0363 
     41 CB         28.4171    2.4018   -5.0132 C.3       6 UNK        -0.1936 
     42 C          27.9648    2.3632   -7.5049 C.2       6 UNK         0.5081 
     43 O          28.7688    3.0097   -8.1732 O.2       6 UNK        -0.5248 
     44 N          26.6581    2.2911   -7.7900 N.am      7 UNK        -0.4718 
     45 CA         26.0395    2.8528   -8.9921 C.3       7 UNK         0.0273 
     46 CB         24.5106    2.8073   -8.8439 C.3       7 UNK        -0.1935 
     47 C          26.4782    2.1447  -10.2883 C.2       7 UNK         0.5018 
     48 O          26.5375    2.7958  -11.3322 O.2       7 UNK        -0.5186 
     49 N          26.7723    0.8389  -10.2071 N.am      8 UNK        -0.4240 
     50 CA         27.2640    0.0315  -11.3238 C.3       8 UNK         0.0235 
     51 CB         26.8806   -1.4428  -11.1105 C.3       8 UNK        -0.2000 
     52 C          28.7810    0.1864  -11.5160 C.2       8 UNK         0.4941 
     53 O          29.2250    0.3770  -12.6493 O.2       8 UNK        -0.5273 
     54 N          29.5463    0.1078  -10.4204 N.am      9 UNK        -0.4262 
     55 CA         31.0003    0.2339  -10.4018 C.3       9 UNK         0.0264 
     56 CB         31.6476   -1.1479  -10.6112 C.3       9 UNK        -0.1955 
     57 C          31.4163    0.8586   -9.0672 C.2       9 UNK         0.5031 
     58 O          31.4096    0.1700   -8.0447 O.2       9 UNK        -0.5390 
     59 N          31.7826    2.1466   -9.0933 N.am      10 UNK        -0.4204 
     60 CA         32.1279    2.9724   -7.9277 C.3       10 UNK         0.0237 
     61 CB         31.9829    4.4573   -8.3139 C.3       10 UNK        -0.1985 
     62 C          33.5081    2.6552   -7.3114 C.2       10 UNK         0.4970 
     63 O          34.2799    3.5735   -7.0289 O.2       10 UNK        -0.4914 
     64 N          33.7887    1.3630   -7.1118 N.am      11 UNK        -0.4285 
     65 CA         34.9859    0.8029   -6.4613 C.3       11 UNK         0.1007 
     66 C          36.3337    1.0696   -7.1997 C.2       11 UNK         0.5703 
     67 N          36.3260    1.4372   -8.4756 N.am      11 UNK        -0.7361 
     68 O          37.4067    0.9056   -6.6233 O.2       11 UNK        -0.4986 
     69 C69        35.0499    1.1287   -4.9389 C.3       12 UNK        -0.0947 
     70 S70        33.5382    0.6187   -4.0520 S.3       12 UNK        -0.2240 
     71 C71        33.9173   -1.1320   -3.7378 C.3       12 UNK         0.0194 
     72 H72        25.9018   -5.8733   -4.4601 H         1 UNK         0.0906 
     73 H73        27.6118   -6.0087   -4.0418 H         1 UNK         0.0906 
     74 H74        26.5641   -7.4206   -3.9279 H         1 UNK         0.0906 
     75 H75        27.9379   -4.8666   -2.1213 H         1 UNK         0.3140 
     76 H76        26.5805   -5.6018    0.3019 H         1 UNK         0.1085 
     77 H77        28.0691   -3.8332    1.3381 H         1 UNK         0.0836 
     78 H78        28.9041   -5.1080    0.5162 H         1 UNK         0.0836 
     79 H79        31.2853   -4.0770   -0.5742 H         1 UNK         0.0731 
     80 H80        30.1685   -5.0154   -1.5349 H         1 UNK         0.0731 
     81 H81        32.6637   -2.3522   -1.6340 H         1 UNK         0.1312 
     82 H82        32.3801   -1.7909   -5.8760 H         1 UNK         0.1406 
     83 H83        29.5456   -4.2840   -3.8341 H         1 UNK         0.1631 
     84 H84        30.8728   -3.9156   -6.9673 H         1 UNK         0.0717 
     85 H85        30.1252   -2.3438   -6.9044 H         1 UNK         0.0717 
     86 H86        26.7586   -3.3844   -4.9822 H         1 UNK         0.0934 
     87 H87        28.0728   -2.2669   -4.8098 H         1 UNK         0.0934 
     88 H88        26.6576   -2.5007   -7.5056 H         1 UNK         0.0739 
     89 H89        25.3384   -1.4481   -5.1483 H         1 UNK         0.3093 
     90 H90        22.9325    0.4198   -6.9773 H         1 UNK         0.0818 
     91 H91        21.2374   -1.0583   -5.9244 H         1 UNK         0.0819 
     92 H92        21.9870   -1.8779   -7.2831 H         1 UNK         0.0819 
     93 H93        22.4555   -2.3038   -5.6430 H         1 UNK         0.0819 
     94 H94        23.0222   -0.3261   -4.2354 H         1 UNK         0.3041 
     95 H95        25.6226    1.7197   -3.1140 H         1 UNK         0.0784 
     96 H96        23.9037    3.5203   -3.3840 H         1 UNK         0.0793 
     97 H97        22.6575    2.4339   -2.7858 H         1 UNK         0.0793 
     98 H98        23.9744    2.9450   -1.7280 H         1 UNK         0.0793 
     99 H99        23.6616    0.4721   -1.5666 H         1 UNK         0.3024 
    100 H100       24.4257   -1.4041   -0.3631 H         1 UNK         0.1171 
    101 H101       22.3684   -1.7926   -1.7694 H         1 UNK         0.0786 
    102 H102       22.8406   -3.2748   -0.9595 H         1 UNK         0.0786 
    103 H103       23.2053   -3.0534   -2.6682 H         1 UNK         0.0786 
    104 H104       26.1055   -3.0454   -2.0676 H         1 UNK         0.2977 
    105 H105       27.1848    0.2289   -5.2357 H         1 UNK         0.3127 
    106 H106       29.5033    1.2855   -6.4848 H         1 UNK         0.0770 
    107 H107       27.3994    2.7029   -4.7630 H         1 UNK         0.0814 
    108 H108       29.0053    3.3128   -5.1319 H         1 UNK         0.0814 
    109 H109       28.8293    1.8599   -4.1619 H         1 UNK         0.0814 
    110 H110       26.0420    1.8377   -7.1204 H         1 UNK         0.2983 
    111 H111       26.3460    3.8983   -9.0689 H         1 UNK         0.0947 
    112 H112       24.0214    3.2681   -9.7031 H         1 UNK         0.0806 
    113 H113       24.1811    3.3454   -7.9547 H         1 UNK         0.0806 
    114 H114       24.1441    1.7830   -8.7704 H         1 UNK         0.0806 
    115 H115       26.7207    0.3838   -9.3044 H         1 UNK         0.3000 
    116 H116       26.7759    0.3690  -12.2410 H         1 UNK         0.0850 
    117 H117       27.1955   -2.0525  -11.9583 H         1 UNK         0.0810 
    118 H118       25.8014   -1.5595  -11.0087 H         1 UNK         0.0810 
    119 H119       27.3447   -1.8633  -10.2183 H         1 UNK         0.0810 
    120 H120       29.1081   -0.0766   -9.5160 H         1 UNK         0.3040 
    121 H121       31.3245    0.8936  -11.2096 H         1 UNK         0.0766 
    122 H122       32.7348   -1.0831  -10.5537 H         1 UNK         0.0812 
    123 H123       31.3972   -1.5583  -11.5895 H         1 UNK         0.0812 
    124 H124       31.3211   -1.8639   -9.8555 H         1 UNK         0.0812 
    125 H125       31.7712    2.6265   -9.9817 H         1 UNK         0.3205 
    126 H126       31.3935    2.7675   -7.1463 H         1 UNK         0.0754 
    127 H127       32.1479    5.1059   -7.4524 H         1 UNK         0.0769 
    128 H128       30.9813    4.6736   -8.6865 H         1 UNK         0.0769 
    129 H129       32.6991    4.7461   -9.0841 H         1 UNK         0.0769 
    130 H130       33.0659    0.6953   -7.3694 H         1 UNK         0.2981 
    131 H131       34.8601   -0.2763   -6.5478 H         1 UNK         0.0541 
    132 H132       35.4548    1.5721   -8.9621 H         1 UNK         0.3459 
    133 H133       37.2013    1.5961   -8.9491 H         1 UNK         0.3459 
    134 H134       35.1925    2.1992   -4.7847 H         1 UNK         0.0612 
    135 H135       35.9042    0.6395   -4.4678 H         1 UNK         0.0612 
    136 H136       34.4379   -1.2160   -2.7827 H         1 UNK         0.0624 
    137 H137       34.6041   -1.5118   -4.4951 H         1 UNK         0.0624 
@<TRIPOS>BOND
     1    1    2 1    
     2    1   72 1    
     3    1   73 1    
     4    1   74 1    
     5    2    3 2    
     6    2    4 am   BACKBONE|DICT|INTERRES
     7    4    5 1    
     8    4   75 1    
     9    5    6 1    
    10    5   35 1    
    11    5   76 1    
    12    6    7 1    
    13    6   77 1    
    14    6   78 1    
    15    7    8 1    
    16    8    9 1    
    17    8   79 1    
    18    8   80 1    
    19    9   10 ar   
    20    9   14 ar   
    21   10   11 ar   
    22   10   81 1    
    23   11   12 ar   
    24   11   71 1    
    25   12   13 ar   
    26   12   82 1    
    27   13   14 ar   
    28   13   15 1    
    29   14   83 1    
    30   15   16 1    
    31   15   84 1    
    32   15   85 1    
    33   16   17 1    
    34   17   18 1    
    35   17   86 1    
    36   17   87 1    
    37   18   19 1    
    38   18   37 1    
    39   18   88 1    
    40   19   20 am   BACKBONE|DICT|INTERRES
    41   19   89 1    
    42   20   21 2    
    43   20   22 1    
    44   22   23 1    
    45   22   24 1    
    46   22   90 1    
    47   23   91 1    
    48   23   92 1    
    49   23   93 1    
    50   24   25 am   BACKBONE|DICT|INTERRES
    51   24   94 1    
    52   25   26 2    
    53   25   27 1    
    54   27   28 1    
    55   27   29 1    
    56   27   95 1    
    57   28   96 1    
    58   28   97 1    
    59   28   98 1    
    60   29   30 am   BACKBONE|DICT|INTERRES
    61   29   99 1    
    62   30   31 2    
    63   30   32 1    
    64   32   33 1    
    65   32   34 1    
    66   32  100 1    
    67   33  101 1    
    68   33  102 1    
    69   33  103 1    
    70   34   35 am   BACKBONE|DICT|INTERRES
    71   34  104 1    
    72   35   36 2    
    73   37   38 2    
    74   37   39 am   BACKBONE|DICT|INTERRES
    75   39   40 1    
    76   39  105 1    
    77   40   41 1    
    78   40   42 1    
    79   40  106 1    
    80   41  107 1    
    81   41  108 1    
    82   41  109 1    
    83   42   43 2    
    84   42   44 am   BACKBONE|DICT|INTERRES
    85   44   45 1    
    86   44  110 1    
    87   45   46 1    
    88   45   47 1    
    89   45  111 1    
    90   46  112 1    
    91   46  113 1    
    92   46  114 1    
    93   47   48 2    
    94   47   49 am   BACKBONE|DICT|INTERRES
    95   49   50 1    
    96   49  115 1    
    97   50   51 1    
    98   50   52 1    
    99   50  116 1    
   100   51  117 1    
   101   51  118 1    
   102   51  119 1    
   103   52   53 2    
   104   52   54 am   BACKBONE|DICT|INTERRES
   105   54   55 1    
   106   54  120 1    
   107   55   56 1    
   108   55   57 1    
   109   55  121 1    
   110   56  122 1    
   111   56  123 1    
   112   56  124 1    
   113   57   58 2    
   114   57   59 am   BACKBONE|DICT|INTERRES
   115   59   60 1    
   116   59  125 1    
   117   60   61 1    
   118   60   62 1    
   119   60  126 1    
   120   61  127 1    
   121   61  128 1    
   122   61  129 1    
   123   62   63 2    
   124   62   64 am   BACKBONE|DICT|INTERRES
   125   64   65 1    
   126   64  130 1    
   127   65   66 1    
   128   65   69 1    
   129   65  131 1    
   130   66   67 am   BACKBONE|DICT|INTERRES
   131   66   68 2    
   132   67  132 1    
   133   67  133 1    
   134   69   70 1    
   135   69  134 1    
   136   69  135 1    
   137   70   71 1    
   138   71  136 1    
   139   71  137 1    
@<TRIPOS>SUBSTRUCTURE
     1 UNK         1 GROUP             0       ****    0 ROOT    
