@<TRIPOS>MOLECULE
3R137
137   139    1
SMALL
USER_CHARGES


@<TRIPOS>ATOM
      1 CA         26.3693   -5.4708   -7.9677 C.3       0 UNK        -0.2020 
      2 C          26.6144   -5.7631   -6.4953 C.2       0 UNK         0.4855 
      3 O          26.0738   -6.7339   -5.9657 O.2       0 UNK        -0.5197 
      4 N          27.4307   -4.9337   -5.8316 N.am      1 UNK        -0.4892 
      5 CA         27.7910   -5.0715   -4.4125 C.3       1 UNK         0.0835 
      6 C6         29.1152   -4.3261   -4.1111 C.3       12 UNK        -0.0855 
      7 S7         30.0727   -5.0694   -2.7470 S.3       12 UNK        -0.2931 
      8 C8         31.5726   -4.0188   -2.7374 C.3       12 UNK         0.0378 
      9 C9         31.3147   -2.5330   -2.4809 C.ar      12 UNK        -0.0802 
     10 C10        32.1744   -1.5783   -3.0340 C.ar      12 UNK        -0.0944 
     11 C11        31.9388   -0.2067   -2.8638 C.ar      12 UNK        -0.0787 
     12 C12        30.8344    0.2031   -2.1062 C.ar      12 UNK        -0.0862 
     13 C13        29.9882   -0.7408   -1.5154 C.ar      12 UNK        -0.0733 
     14 C14        30.2421   -2.1008   -1.6959 C.ar      12 UNK        -0.0832 
     15 C15        28.8071   -0.3187   -0.6564 C.3       12 UNK         0.0240 
     16 S16        27.2187   -0.7483   -1.4404 S.3       12 UNK        -0.2522 
     17 C17        26.8359    0.7636   -2.3783 C.3       12 UNK        -0.0967 
     18 CA         26.6399    0.5075   -3.8999 C.3       5 UNK         0.0660 
     19 N          25.4629    1.2327   -4.3928 N.am      5 UNK        -0.4015 
     20 C          25.1204    1.5976   -5.6349 C.2       4 UNK         0.4946 
     21 O          25.8716    1.5753   -6.6079 O.2       4 UNK        -0.5353 
     22 CA         23.6477    2.0183   -5.8149 C.3       4 UNK         0.0277 
     23 CB         23.3539    2.5486   -7.2309 C.3       4 UNK        -0.1981 
     24 N          22.7558    0.8881   -5.5341 N.am      4 UNK        -0.4209 
     25 C          22.4764    0.4111   -4.3133 C.2       3 UNK         0.4942 
     26 O          22.8474    0.9592   -3.2725 O.2       3 UNK        -0.5208 
     27 CA         21.7139   -0.9214   -4.2159 C.3       3 UNK         0.0250 
     28 CB         21.0911   -1.4038   -5.5474 C.3       3 UNK        -0.1990 
     29 N          22.5658   -1.9609   -3.6212 N.am      3 UNK        -0.4232 
     30 C          23.7142   -2.4499   -4.1169 C.2       2 UNK         0.4993 
     31 O          24.2097   -2.1012   -5.1921 O.2       2 UNK        -0.5286 
     32 CA         24.4174   -3.5279   -3.2777 C.3       2 UNK         0.0209 
     33 CB         23.5029   -4.7549   -3.0649 C.3       2 UNK        -0.1931 
     34 N          25.6428   -3.9313   -3.9659 N.am      2 UNK        -0.4546 
     35 C          26.6441   -4.6595   -3.4546 C.2       1 UNK         0.5154 
     36 O          26.6697   -5.0341   -2.2812 O.2       1 UNK        -0.5181 
     37 C          27.9370    0.7131   -4.7082 C.2       5 UNK         0.5014 
     38 O          28.3897   -0.2144   -5.3804 O.2       5 UNK        -0.5248 
     39 N          28.4861    1.9347   -4.6573 N.am      6 UNK        -0.4434 
     40 CA         29.7487    2.2982   -5.3030 C.3       6 UNK         0.0363 
     41 CB         30.2329    3.6462   -4.7468 C.3       6 UNK        -0.1936 
     42 C          29.6810    2.3440   -6.8373 C.2       6 UNK         0.5081 
     43 O          30.6948    2.0844   -7.4842 O.2       6 UNK        -0.5248 
     44 N          28.5085    2.6641   -7.3995 N.am      7 UNK        -0.4718 
     45 CA         28.2779    2.6884   -8.8456 C.3       7 UNK         0.0273 
     46 CB         27.0632    3.5731   -9.1689 C.3       7 UNK        -0.1935 
     47 C          28.0915    1.2704   -9.4023 C.2       7 UNK         0.5018 
     48 O          28.6557    0.9535  -10.4487 O.2       7 UNK        -0.5186 
     49 N          27.3421    0.4358   -8.6690 N.am      8 UNK        -0.4240 
     50 CA         27.1190   -0.9820   -8.9547 C.3       8 UNK         0.0235 
     51 CB         26.0428   -1.5269   -8.0015 C.3       8 UNK        -0.2000 
     52 C          28.4113   -1.8081   -8.8547 C.2       8 UNK         0.4941 
     53 O          28.6484   -2.6686   -9.7023 O.2       8 UNK        -0.5273 
     54 N          29.2330   -1.5140   -7.8380 N.am      9 UNK        -0.4262 
     55 CA         30.5664   -2.0891   -7.6494 C.3       9 UNK         0.0264 
     56 CB         31.0084   -1.8151   -6.2089 C.3       9 UNK        -0.1955 
     57 C          31.6261   -1.5375   -8.6223 C.2       9 UNK         0.5031 
     58 O          32.6521   -2.1920   -8.8124 O.2       9 UNK        -0.5390 
     59 N          31.3715   -0.3508   -9.1944 N.am      10 UNK        -0.4204 
     60 CA         32.2560    0.4435  -10.0543 C.3       10 UNK         0.0237 
     61 CB         32.5321   -0.2788  -11.3905 C.3       10 UNK        -0.1985 
     62 C          33.5361    0.8895   -9.3195 C.2       10 UNK         0.4970 
     63 O          34.6419    0.7171   -9.8366 O.2       10 UNK        -0.4914 
     64 N          33.3548    1.4564   -8.1202 N.am      11 UNK        -0.4285 
     65 CA         34.4307    1.9767   -7.2587 C.3       11 UNK         0.1007 
     66 C          35.0180    3.3411   -7.7229 C.2       11 UNK         0.5703 
     67 N          34.3956    4.0544   -8.6547 N.am      11 UNK        -0.7361 
     68 O          36.0657    3.7563   -7.2331 O.2       11 UNK        -0.4986 
     69 C69        34.0006    2.0409   -5.7682 C.3       12 UNK        -0.0947 
     70 S70        33.4912    0.4163   -5.1254 S.3       12 UNK        -0.2240 
     71 C71        32.8766    0.8448   -3.4615 C.3       12 UNK         0.0194 
     72 H72        25.3529   -5.1064   -8.1143 H         1 UNK         0.0906 
     73 H73        27.0630   -4.7258   -8.3567 H         1 UNK         0.0906 
     74 H74        26.4927   -6.3797   -8.5562 H         1 UNK         0.0906 
     75 H75        27.8459   -4.1513   -6.3167 H         1 UNK         0.3140 
     76 H76        27.9616   -6.1364   -4.2365 H         1 UNK         0.1085 
     77 H77        29.7655   -4.3668   -4.9861 H         1 UNK         0.0836 
     78 H78        28.9312   -3.2684   -3.9123 H         1 UNK         0.0836 
     79 H79        32.2524   -4.3894   -1.9693 H         1 UNK         0.0731 
     80 H80        32.0844   -4.1477   -3.6926 H         1 UNK         0.0731 
     81 H81        33.0251   -1.9074   -3.6143 H         1 UNK         0.1312 
     82 H82        30.6419    1.2575   -1.9627 H         1 UNK         0.1406 
     83 H83        29.5806   -2.8218   -1.2354 H         1 UNK         0.1631 
     84 H84        28.8692   -0.8383    0.3009 H         1 UNK         0.0717 
     85 H85        28.8451    0.7456   -0.4204 H         1 UNK         0.0717 
     86 H86        25.9160    1.1489   -1.9343 H         1 UNK         0.0934 
     87 H87        27.5783    1.5374   -2.1781 H         1 UNK         0.0934 
     88 H88        26.3703   -0.5417   -4.0376 H         1 UNK         0.0739 
     89 H89        24.6974    1.2767   -3.7261 H         1 UNK         0.3093 
     90 H90        23.4409    2.8221   -5.1050 H         1 UNK         0.0818 
     91 H91        22.3147    2.8622   -7.3302 H         1 UNK         0.0819 
     92 H92        23.9752    3.4159   -7.4572 H         1 UNK         0.0819 
     93 H93        23.5528    1.7964   -7.9956 H         1 UNK         0.0819 
     94 H94        22.4612    0.3415   -6.3303 H         1 UNK         0.3041 
     95 H95        20.8954   -0.7504   -3.5149 H         1 UNK         0.0784 
     96 H96        20.4130   -0.6548   -5.9588 H         1 UNK         0.0793 
     97 H97        21.8415   -1.6262   -6.3067 H         1 UNK         0.0793 
     98 H98        20.5058   -2.3106   -5.3946 H         1 UNK         0.0793 
     99 H99        22.2617   -2.2938   -2.7169 H         1 UNK         0.3024 
    100 H100       24.6850   -3.0884   -2.3141 H         1 UNK         0.1171 
    101 H101       23.2142   -5.2063   -4.0151 H         1 UNK         0.0786 
    102 H102       23.9933   -5.5245   -2.4690 H         1 UNK         0.0786 
    103 H103       22.5869   -4.4888   -2.5370 H         1 UNK         0.0786 
    104 H104       25.6957   -3.6115   -4.9256 H         1 UNK         0.2977 
    105 H105       28.0192    2.6567   -4.1283 H         1 UNK         0.3127 
    106 H106       30.4847    1.5354   -5.0428 H         1 UNK         0.0770 
    107 H107       29.5102    4.4418   -4.9320 H         1 UNK         0.0814 
    108 H108       31.1713    3.9493   -5.2122 H         1 UNK         0.0814 
    109 H109       30.4081    3.5931   -3.6723 H         1 UNK         0.0814 
    110 H110       27.6925    2.7591   -6.8074 H         1 UNK         0.2983 
    111 H111       29.1524    3.1266   -9.3326 H         1 UNK         0.0947 
    112 H112       26.9039    3.6343  -10.2463 H         1 UNK         0.0806 
    113 H113       27.2055    4.5904   -8.8042 H         1 UNK         0.0806 
    114 H114       26.1458    3.1838   -8.7274 H         1 UNK         0.0806 
    115 H115       26.8868    0.8111   -7.8359 H         1 UNK         0.3000 
    116 H116       26.7477   -1.0616   -9.9784 H         1 UNK         0.0850 
    117 H117       25.8071   -2.5665   -8.2261 H         1 UNK         0.0810 
    118 H118       25.1144   -0.9617   -8.0861 H         1 UNK         0.0810 
    119 H119       26.3612   -1.4778   -6.9591 H         1 UNK         0.0810 
    120 H120       28.9200   -0.8556   -7.1270 H         1 UNK         0.3040 
    121 H121       30.5044   -3.1694   -7.7961 H         1 UNK         0.0766 
    122 H122       31.0812   -0.7445   -6.0215 H         1 UNK         0.0812 
    123 H123       31.9823   -2.2591   -5.9997 H         1 UNK         0.0812 
    124 H124       30.3019   -2.2110   -5.4854 H         1 UNK         0.0812 
    125 H125       30.5053    0.1051   -8.9408 H         1 UNK         0.3205 
    126 H126       31.7059    1.3568  -10.2862 H         1 UNK         0.0754 
    127 H127       33.0882    0.3647  -12.0732 H         1 UNK         0.0769 
    128 H128       31.6025   -0.5537  -11.8892 H         1 UNK         0.0769 
    129 H129       33.1192   -1.1868  -11.2503 H         1 UNK         0.0769 
    130 H130       32.4030    1.6003   -7.7866 H         1 UNK         0.2981 
    131 H131       35.2599    1.2691   -7.3200 H         1 UNK         0.0541 
    132 H132       34.7899    4.9336   -8.9496 H         1 UNK         0.3459 
    133 H133       33.5324    3.7261   -9.0559 H         1 UNK         0.3459 
    134 H134       33.1751    2.7426   -5.6446 H         1 UNK         0.0612 
    135 H135       34.8178    2.4045   -5.1424 H         1 UNK         0.0612 
    136 H136       33.7295    0.9786   -2.7954 H         1 UNK         0.0624 
    137 H137       32.3694    1.8088   -3.5129 H         1 UNK         0.0624 
@<TRIPOS>BOND
     1    1    2 1    
     2    1   72 1    
     3    1   73 1    
     4    1   74 1    
     5    2    3 2    
     6    2    4 am   BACKBONE|DICT|INTERRES
     7    4    5 1    
     8    4   75 1    
     9    5    6 1    
    10    5   35 1    
    11    5   76 1    
    12    6    7 1    
    13    6   77 1    
    14    6   78 1    
    15    7    8 1    
    16    8    9 1    
    17    8   79 1    
    18    8   80 1    
    19    9   10 ar   
    20    9   14 ar   
    21   10   11 ar   
    22   10   81 1    
    23   11   12 ar   
    24   11   71 1    
    25   12   13 ar   
    26   12   82 1    
    27   13   14 ar   
    28   13   15 1    
    29   14   83 1    
    30   15   16 1    
    31   15   84 1    
    32   15   85 1    
    33   16   17 1    
    34   17   18 1    
    35   17   86 1    
    36   17   87 1    
    37   18   19 1    
    38   18   37 1    
    39   18   88 1    
    40   19   20 am   BACKBONE|DICT|INTERRES
    41   19   89 1    
    42   20   21 2    
    43   20   22 1    
    44   22   23 1    
    45   22   24 1    
    46   22   90 1    
    47   23   91 1    
    48   23   92 1    
    49   23   93 1    
    50   24   25 am   BACKBONE|DICT|INTERRES
    51   24   94 1    
    52   25   26 2    
    53   25   27 1    
    54   27   28 1    
    55   27   29 1    
    56   27   95 1    
    57   28   96 1    
    58   28   97 1    
    59   28   98 1    
    60   29   30 am   BACKBONE|DICT|INTERRES
    61   29   99 1    
    62   30   31 2    
    63   30   32 1    
    64   32   33 1    
    65   32   34 1    
    66   32  100 1    
    67   33  101 1    
    68   33  102 1    
    69   33  103 1    
    70   34   35 am   BACKBONE|DICT|INTERRES
    71   34  104 1    
    72   35   36 2    
    73   37   38 2    
    74   37   39 am   BACKBONE|DICT|INTERRES
    75   39   40 1    
    76   39  105 1    
    77   40   41 1    
    78   40   42 1    
    79   40  106 1    
    80   41  107 1    
    81   41  108 1    
    82   41  109 1    
    83   42   43 2    
    84   42   44 am   BACKBONE|DICT|INTERRES
    85   44   45 1    
    86   44  110 1    
    87   45   46 1    
    88   45   47 1    
    89   45  111 1    
    90   46  112 1    
    91   46  113 1    
    92   46  114 1    
    93   47   48 2    
    94   47   49 am   BACKBONE|DICT|INTERRES
    95   49   50 1    
    96   49  115 1    
    97   50   51 1    
    98   50   52 1    
    99   50  116 1    
   100   51  117 1    
   101   51  118 1    
   102   51  119 1    
   103   52   53 2    
   104   52   54 am   BACKBONE|DICT|INTERRES
   105   54   55 1    
   106   54  120 1    
   107   55   56 1    
   108   55   57 1    
   109   55  121 1    
   110   56  122 1    
   111   56  123 1    
   112   56  124 1    
   113   57   58 2    
   114   57   59 am   BACKBONE|DICT|INTERRES
   115   59   60 1    
   116   59  125 1    
   117   60   61 1    
   118   60   62 1    
   119   60  126 1    
   120   61  127 1    
   121   61  128 1    
   122   61  129 1    
   123   62   63 2    
   124   62   64 am   BACKBONE|DICT|INTERRES
   125   64   65 1    
   126   64  130 1    
   127   65   66 1    
   128   65   69 1    
   129   65  131 1    
   130   66   67 am   BACKBONE|DICT|INTERRES
   131   66   68 2    
   132   67  132 1    
   133   67  133 1    
   134   69   70 1    
   135   69  134 1    
   136   69  135 1    
   137   70   71 1    
   138   71  136 1    
   139   71  137 1    
@<TRIPOS>SUBSTRUCTURE
     1 UNK         1 GROUP             0       ****    0 ROOT    
