@<TRIPOS>MOLECULE
3R137
137   139    1
SMALL
USER_CHARGES


@<TRIPOS>ATOM
      1 CA         25.1579   -5.3521    1.5983 C.3       0 UNK        -0.2020 
      2 C          25.8150   -3.9961    1.3886 C.2       0 UNK         0.4855 
      3 O          25.5951   -3.0807    2.1820 O.2       0 UNK        -0.5197 
      4 N          26.6212   -3.8604    0.3266 N.am      1 UNK        -0.4892 
      5 CA         27.3187   -2.6189   -0.0417 C.3       1 UNK         0.0835 
      6 C6         28.4704   -2.9004   -1.0410 C.3       12 UNK        -0.0855 
      7 S7         29.8893   -1.7781   -0.8090 S.3       12 UNK        -0.2931 
      8 C8         31.2558   -2.7946   -1.4545 C.3       12 UNK         0.0378 
      9 C9         31.1591   -2.9592   -2.9638 C.ar      12 UNK        -0.0802 
     10 C10        31.7166   -1.9962   -3.8084 C.ar      12 UNK        -0.0944 
     11 C11        31.6132   -2.1272   -5.1953 C.ar      12 UNK        -0.0787 
     12 C12        30.9602   -3.2372   -5.7377 C.ar      12 UNK        -0.0862 
     13 C13        30.3882   -4.2039   -4.9035 C.ar      12 UNK        -0.0733 
     14 C14        30.5024   -4.0631   -3.5169 C.ar      12 UNK        -0.0832 
     15 C15        29.6604   -5.4127   -5.4836 C.3       12 UNK         0.0240 
     16 S16        28.4776   -5.0001   -6.8107 S.3       12 UNK        -0.2522 
     17 C17        27.2409   -3.9671   -5.9510 C.3       12 UNK        -0.0967 
     18 CA         26.8491   -2.7296   -6.8001 C.3       5 UNK         0.0660 
     19 N          25.4946   -2.2596   -6.5131 N.am      5 UNK        -0.4015 
     20 C          24.4862   -2.2598   -7.3965 C.2       4 UNK         0.4946 
     21 O          24.5199   -2.8521   -8.4757 O.2       4 UNK        -0.5353 
     22 CA         23.2210   -1.4485   -7.0481 C.3       4 UNK         0.0277 
     23 CB         22.0787   -2.3909   -6.6337 C.3       4 UNK        -0.1981 
     24 N          23.4020   -0.4359   -6.0039 N.am      4 UNK        -0.4209 
     25 C          24.2822    0.5761   -6.0181 C.2       3 UNK         0.4942 
     26 O          25.0423    0.8215   -6.9550 O.2       3 UNK        -0.5208 
     27 CA         24.4019    1.3998   -4.7238 C.3       3 UNK         0.0250 
     28 CB         23.4779    2.6258   -4.7841 C.3       3 UNK        -0.1990 
     29 N          24.1310    0.6412   -3.4936 N.am      3 UNK        -0.4232 
     30 C          24.7266   -0.5027   -3.1219 C.2       2 UNK         0.4993 
     31 O          25.5685   -1.0975   -3.8039 O.2       2 UNK        -0.5286 
     32 CA         24.2305   -1.1239   -1.8082 C.3       2 UNK         0.0209 
     33 CB         22.9688   -1.9647   -2.0651 C.3       2 UNK        -0.1931 
     34 N          25.2465   -1.9791   -1.1968 N.am      2 UNK        -0.4546 
     35 C          26.3536   -1.5390   -0.5823 C.2       1 UNK         0.5154 
     36 O          26.6102   -0.3454   -0.4154 O.2       1 UNK        -0.5181 
     37 C          27.8425   -1.5640   -6.6423 C.2       5 UNK         0.5014 
     38 O          28.6322   -1.3243   -7.5571 O.2       5 UNK        -0.5248 
     39 N          27.7744   -0.8470   -5.5082 N.am      6 UNK        -0.4434 
     40 CA         28.7389    0.1772   -5.0988 C.3       6 UNK         0.0363 
     41 CB         28.4079    0.6778   -3.6844 C.3       6 UNK        -0.1936 
     42 C          28.8916    1.3464   -6.0822 C.2       6 UNK         0.5081 
     43 O          30.0169    1.6801   -6.4571 O.2       6 UNK        -0.5248 
     44 N          27.7621    1.9326   -6.4957 N.am      7 UNK        -0.4718 
     45 CA         27.7226    3.0349   -7.4576 C.3       7 UNK         0.0273 
     46 CB         26.4969    3.9200   -7.1787 C.3       7 UNK        -0.1935 
     47 C          27.7037    2.5213   -8.9038 C.2       7 UNK         0.5018 
     48 O          28.2212    3.2048   -9.7862 O.2       7 UNK        -0.5186 
     49 N          27.1183    1.3339   -9.1187 N.am      8 UNK        -0.4240 
     50 CA         27.0213    0.6691  -10.4187 C.3       8 UNK         0.0235 
     51 CB         26.1032   -0.5563  -10.3066 C.3       8 UNK        -0.2000 
     52 C          28.3900    0.2788  -10.9993 C.2       8 UNK         0.4941 
     53 O          28.6632    0.6049  -12.1554 O.2       8 UNK        -0.5273 
     54 N          29.2271   -0.3946  -10.1955 N.am      9 UNK        -0.4262 
     55 CA         30.5958   -0.7568  -10.5777 C.3       9 UNK         0.0264 
     56 CB         31.0149   -2.0509   -9.8625 C.3       9 UNK        -0.1955 
     57 C          31.6027    0.3838  -10.3380 C.2       9 UNK         0.5031 
     58 O          32.6511    0.3848  -10.9844 O.2       9 UNK        -0.5390 
     59 N          31.2575    1.3381   -9.4563 N.am      10 UNK        -0.4204 
     60 CA         31.9701    2.5893   -9.1620 C.3       10 UNK         0.0237 
     61 CB         31.8801    3.5517  -10.3656 C.3       10 UNK        -0.1985 
     62 C          33.4176    2.3598   -8.6878 C.2       10 UNK         0.4970 
     63 O          34.3639    2.8185   -9.3314 O.2       10 UNK        -0.4914 
     64 N          33.5576    1.6345   -7.5720 N.am      11 UNK        -0.4285 
     65 CA         34.8534    1.2462   -6.9830 C.3       11 UNK         0.1007 
     66 C          35.6679    2.4144   -6.3526 C.2       11 UNK         0.5703 
     67 N          35.0821    3.5811   -6.1085 N.am      11 UNK        -0.7361 
     68 O          36.8568    2.2581   -6.0842 O.2       11 UNK        -0.4986 
     69 C69        34.7132    0.0752   -5.9728 C.3       12 UNK        -0.0947 
     70 S70        33.8361   -1.3681   -6.6640 S.3       12 UNK        -0.2240 
     71 C71        32.1403   -1.0312   -6.1042 C.3       12 UNK         0.0194 
     72 H72        24.0731   -5.2500    1.5787 H         1 UNK         0.0906 
     73 H73        25.4448   -6.0694    0.8297 H         1 UNK         0.0906 
     74 H74        25.4438   -5.7614    2.5669 H         1 UNK         0.0906 
     75 H75        26.7708   -4.6517   -0.2838 H         1 UNK         0.3140 
     76 H76        27.7497   -2.2197    0.8798 H         1 UNK         0.1085 
     77 H77        28.1339   -2.8527   -2.0794 H         1 UNK         0.0836 
     78 H78        28.8405   -3.9164   -0.8959 H         1 UNK         0.0836 
     79 H79        32.2020   -2.3164   -1.1965 H         1 UNK         0.0731 
     80 H80        31.2641   -3.7667   -0.9589 H         1 UNK         0.0731 
     81 H81        32.2105   -1.1323   -3.3848 H         1 UNK         0.1312 
     82 H82        30.8727   -3.3348   -6.8107 H         1 UNK         0.1406 
     83 H83        30.0723   -4.8105   -2.8644 H         1 UNK         0.1631 
     84 H84        29.1249   -5.9553   -4.7029 H         1 UNK         0.0717 
     85 H85        30.4034   -6.1036   -5.8836 H         1 UNK         0.0717 
     86 H86        26.3660   -4.5986   -5.7879 H         1 UNK         0.0934 
     87 H87        27.5896   -3.6836   -4.9559 H         1 UNK         0.0934 
     88 H88        26.8990   -3.0199   -7.8518 H         1 UNK         0.0739 
     89 H89        25.3675   -1.7709   -5.6323 H         1 UNK         0.3093 
     90 H90        22.9225   -0.9231   -7.9576 H         1 UNK         0.0818 
     91 H91        21.1461   -1.8460   -6.4861 H         1 UNK         0.0819 
     92 H92        21.8924   -3.1418   -7.4031 H         1 UNK         0.0819 
     93 H93        22.3094   -2.9225   -5.7094 H         1 UNK         0.0819 
     94 H94        22.8342   -0.5448   -5.1767 H         1 UNK         0.3041 
     95 H95        25.4294    1.7589   -4.6624 H         1 UNK         0.0784 
     96 H96        23.6660    3.2155   -5.6824 H         1 UNK         0.0793 
     97 H97        22.4255    2.3395   -4.7981 H         1 UNK         0.0793 
     98 H98        23.6359    3.2848   -3.9301 H         1 UNK         0.0793 
     99 H99        23.4374    1.0399   -2.8764 H         1 UNK         0.3024 
    100 H100       23.9904   -0.3208   -1.1073 H         1 UNK         0.1171 
    101 H101       22.1641   -1.3545   -2.4774 H         1 UNK         0.0786 
    102 H102       22.5931   -2.4075   -1.1422 H         1 UNK         0.0786 
    103 H103       23.1589   -2.7741   -2.7716 H         1 UNK         0.0786 
    104 H104       25.1264   -2.9754   -1.3012 H         1 UNK         0.2977 
    105 H105       27.0560   -1.0699   -4.8216 H         1 UNK         0.3127 
    106 H106       29.7055   -0.3135   -5.0404 H         1 UNK         0.0770 
    107 H107       27.4373    1.1694   -3.6382 H         1 UNK         0.0814 
    108 H108       29.1540    1.3952   -3.3405 H         1 UNK         0.0814 
    109 H109       28.3975   -0.1433   -2.9674 H         1 UNK         0.0814 
    110 H110       26.8716    1.5356   -6.2240 H         1 UNK         0.2983 
    111 H111       28.6163    3.6517   -7.3356 H         1 UNK         0.0947 
    112 H112       26.4966    4.7951   -7.8300 H         1 UNK         0.0806 
    113 H113       26.4920    4.2817   -6.1504 H         1 UNK         0.0806 
    114 H114       25.5615    3.3887   -7.3538 H         1 UNK         0.0806 
    115 H115       26.6586    0.8841   -8.3356 H         1 UNK         0.3000 
    116 H116       26.5575    1.3749  -11.1113 H         1 UNK         0.0850 
    117 H117       25.9688   -1.0343  -11.2777 H         1 UNK         0.0810 
    118 H118       25.1137   -0.2806   -9.9408 H         1 UNK         0.0810 
    119 H119       26.5133   -1.3059   -9.6301 H         1 UNK         0.0810 
    120 H120       28.9269   -0.6579   -9.2571 H         1 UNK         0.3040 
    121 H121       30.6171   -0.9677  -11.6492 H         1 UNK         0.0766 
    122 H122       30.4036   -2.8930  -10.1870 H         1 UNK         0.0812 
    123 H123       30.9132   -1.9719   -8.7841 H         1 UNK         0.0812 
    124 H124       32.0545   -2.3024  -10.0772 H         1 UNK         0.0812 
    125 H125       30.3915    1.2102   -8.9510 H         1 UNK         0.3205 
    126 H126       31.4416    3.0596   -8.3315 H         1 UNK         0.0754 
    127 H127       32.3339    4.5153  -10.1306 H         1 UNK         0.0769 
    128 H128       30.8430    3.7414  -10.6428 H         1 UNK         0.0769 
    129 H129       32.3926    3.1551  -11.2428 H         1 UNK         0.0769 
    130 H130       32.7297    1.3049   -7.0988 H         1 UNK         0.2981 
    131 H131       35.4666    0.8782   -7.8080 H         1 UNK         0.0541 
    132 H132       34.1087    3.7207   -6.3250 H         1 UNK         0.3459 
    133 H133       35.6227    4.3293   -5.7041 H         1 UNK         0.3459 
    134 H134       34.2212    0.4057   -5.0565 H         1 UNK         0.0612 
    135 H135       35.7017   -0.2718   -5.6662 H         1 UNK         0.0612 
    136 H136       32.0883   -0.0739   -5.5850 H         1 UNK         0.0624 
    137 H137       31.4897   -0.9157   -6.9688 H         1 UNK         0.0624 
@<TRIPOS>BOND
     1    1    2 1    
     2    1   72 1    
     3    1   73 1    
     4    1   74 1    
     5    2    3 2    
     6    2    4 am   BACKBONE|DICT|INTERRES
     7    4    5 1    
     8    4   75 1    
     9    5    6 1    
    10    5   35 1    
    11    5   76 1    
    12    6    7 1    
    13    6   77 1    
    14    6   78 1    
    15    7    8 1    
    16    8    9 1    
    17    8   79 1    
    18    8   80 1    
    19    9   10 ar   
    20    9   14 ar   
    21   10   11 ar   
    22   10   81 1    
    23   11   12 ar   
    24   11   71 1    
    25   12   13 ar   
    26   12   82 1    
    27   13   14 ar   
    28   13   15 1    
    29   14   83 1    
    30   15   16 1    
    31   15   84 1    
    32   15   85 1    
    33   16   17 1    
    34   17   18 1    
    35   17   86 1    
    36   17   87 1    
    37   18   19 1    
    38   18   37 1    
    39   18   88 1    
    40   19   20 am   BACKBONE|DICT|INTERRES
    41   19   89 1    
    42   20   21 2    
    43   20   22 1    
    44   22   23 1    
    45   22   24 1    
    46   22   90 1    
    47   23   91 1    
    48   23   92 1    
    49   23   93 1    
    50   24   25 am   BACKBONE|DICT|INTERRES
    51   24   94 1    
    52   25   26 2    
    53   25   27 1    
    54   27   28 1    
    55   27   29 1    
    56   27   95 1    
    57   28   96 1    
    58   28   97 1    
    59   28   98 1    
    60   29   30 am   BACKBONE|DICT|INTERRES
    61   29   99 1    
    62   30   31 2    
    63   30   32 1    
    64   32   33 1    
    65   32   34 1    
    66   32  100 1    
    67   33  101 1    
    68   33  102 1    
    69   33  103 1    
    70   34   35 am   BACKBONE|DICT|INTERRES
    71   34  104 1    
    72   35   36 2    
    73   37   38 2    
    74   37   39 am   BACKBONE|DICT|INTERRES
    75   39   40 1    
    76   39  105 1    
    77   40   41 1    
    78   40   42 1    
    79   40  106 1    
    80   41  107 1    
    81   41  108 1    
    82   41  109 1    
    83   42   43 2    
    84   42   44 am   BACKBONE|DICT|INTERRES
    85   44   45 1    
    86   44  110 1    
    87   45   46 1    
    88   45   47 1    
    89   45  111 1    
    90   46  112 1    
    91   46  113 1    
    92   46  114 1    
    93   47   48 2    
    94   47   49 am   BACKBONE|DICT|INTERRES
    95   49   50 1    
    96   49  115 1    
    97   50   51 1    
    98   50   52 1    
    99   50  116 1    
   100   51  117 1    
   101   51  118 1    
   102   51  119 1    
   103   52   53 2    
   104   52   54 am   BACKBONE|DICT|INTERRES
   105   54   55 1    
   106   54  120 1    
   107   55   56 1    
   108   55   57 1    
   109   55  121 1    
   110   56  122 1    
   111   56  123 1    
   112   56  124 1    
   113   57   58 2    
   114   57   59 am   BACKBONE|DICT|INTERRES
   115   59   60 1    
   116   59  125 1    
   117   60   61 1    
   118   60   62 1    
   119   60  126 1    
   120   61  127 1    
   121   61  128 1    
   122   61  129 1    
   123   62   63 2    
   124   62   64 am   BACKBONE|DICT|INTERRES
   125   64   65 1    
   126   64  130 1    
   127   65   66 1    
   128   65   69 1    
   129   65  131 1    
   130   66   67 am   BACKBONE|DICT|INTERRES
   131   66   68 2    
   132   67  132 1    
   133   67  133 1    
   134   69   70 1    
   135   69  134 1    
   136   69  135 1    
   137   70   71 1    
   138   71  136 1    
   139   71  137 1    
@<TRIPOS>SUBSTRUCTURE
     1 UNK         1 GROUP             0       ****    0 ROOT    
