@<TRIPOS>MOLECULE
3R137
137   139    1
SMALL
USER_CHARGES


@<TRIPOS>ATOM
      1 CA         26.1797   -7.9572   -5.8524 C.3       0 UNK        -0.2020 
      2 C          26.3124   -7.1231   -4.5873 C.2       0 UNK         0.4855 
      3 O          26.1188   -7.6428   -3.4881 O.2       0 UNK        -0.5197 
      4 N          26.6401   -5.8322   -4.7331 N.am      1 UNK        -0.4892 
      5 CA         26.8285   -4.8825   -3.6257 C.3       1 UNK         0.0835 
      6 C6         27.6055   -3.6209   -4.0752 C.3       12 UNK        -0.0855 
      7 S7         29.2715   -4.0349   -4.6939 S.3       12 UNK        -0.2931 
      8 C8         30.2979   -3.8446   -3.2008 C.3       12 UNK         0.0378 
      9 C9         30.6170   -2.3847   -2.9156 C.ar      12 UNK        -0.0802 
     10 C10        31.6943   -1.7634   -3.5568 C.ar      12 UNK        -0.0944 
     11 C11        31.9899   -0.4205   -3.3045 C.ar      12 UNK        -0.0787 
     12 C12        31.1939    0.3033   -2.4133 C.ar      12 UNK        -0.0862 
     13 C13        30.1072   -0.3034   -1.7769 C.ar      12 UNK        -0.0733 
     14 C14        29.8379   -1.6539   -2.0130 C.ar      12 UNK        -0.0832 
     15 C15        29.2029    0.5104   -0.8619 C.3       12 UNK         0.0240 
     16 S16        27.5825    0.8484   -1.6306 S.3       12 UNK        -0.2522 
     17 C17        28.0617    1.6469   -3.2025 C.3       12 UNK        -0.0967 
     18 CA         27.8735    0.6741   -4.4029 C.3       5 UNK         0.0660 
     19 N          26.4586    0.3674   -4.6477 N.am      5 UNK        -0.4015 
     20 C          25.5488    1.1903   -5.1921 C.2       4 UNK         0.4946 
     21 O          25.8021    2.3213   -5.6111 O.2       4 UNK        -0.5353 
     22 CA         24.1054    0.6669   -5.2792 C.3       4 UNK         0.0277 
     23 CB         23.9039   -0.1439   -6.5693 C.3       4 UNK        -0.1981 
     24 N          23.7042   -0.1518   -4.1319 N.am      4 UNK        -0.4209 
     25 C          23.6255    0.2618   -2.8603 C.2       3 UNK         0.4942 
     26 O          23.8743    1.4148   -2.5068 O.2       3 UNK        -0.5208 
     27 CA         23.2068   -0.7643   -1.7865 C.3       3 UNK         0.0250 
     28 CB         21.7807   -0.4719   -1.2779 C.3       3 UNK        -0.1990 
     29 N          23.3506   -2.1856   -2.1483 N.am      3 UNK        -0.4232 
     30 C          22.6990   -2.8932   -3.0817 C.2       2 UNK         0.4993 
     31 O          21.9177   -2.3967   -3.8940 O.2       2 UNK        -0.5286 
     32 CA         23.0168   -4.3988   -3.1430 C.3       2 UNK         0.0209 
     33 CB         22.0187   -5.1754   -4.0228 C.3       2 UNK        -0.1931 
     34 N          24.3719   -4.6560   -3.6349 N.am      2 UNK        -0.4546 
     35 C          25.5041   -4.4883   -2.9372 C.2       1 UNK         0.5154 
     36 O          25.5293   -4.0420   -1.7886 O.2       1 UNK        -0.5181 
     37 C          28.5632    1.1195   -5.7112 C.2       5 UNK         0.5014 
     38 O          28.5674    0.3449   -6.6700 O.2       5 UNK        -0.5248 
     39 N          29.0761    2.3571   -5.7603 N.am      6 UNK        -0.4434 
     40 CA         29.7575    2.9531   -6.9140 C.3       6 UNK         0.0363 
     41 CB         30.3985    4.2824   -6.4829 C.3       6 UNK        -0.1936 
     42 C          28.8816    3.1460   -8.1676 C.2       6 UNK         0.5081 
     43 O          29.4299    3.3966   -9.2411 O.2       6 UNK        -0.5248 
     44 N          27.5518    3.0237   -8.0391 N.am      7 UNK        -0.4718 
     45 CA         26.6321    2.9911   -9.1796 C.3       7 UNK         0.0273 
     46 CB         25.2233    3.3973   -8.7174 C.3       7 UNK        -0.1935 
     47 C          26.6031    1.6209   -9.8861 C.2       7 UNK         0.5018 
     48 O          26.0943    1.5492  -11.0057 O.2       7 UNK        -0.5186 
     49 N          27.1266    0.5692   -9.2380 N.am      8 UNK        -0.4240 
     50 CA         27.1827   -0.7953   -9.7642 C.3       8 UNK         0.0235 
     51 CB         26.3858   -1.7342   -8.8420 C.3       8 UNK        -0.2000 
     52 C          28.6300   -1.2830   -9.9136 C.2       8 UNK         0.4941 
     53 O          28.9870   -1.7850  -10.9806 O.2       8 UNK        -0.5273 
     54 N          29.4300   -1.1529   -8.8489 N.am      9 UNK        -0.4262 
     55 CA         30.8177   -1.6071   -8.7933 C.3       9 UNK         0.0264 
     56 CB         31.1555   -1.9895   -7.3437 C.3       9 UNK        -0.1955 
     57 C          31.7812   -0.5262   -9.2981 C.2       9 UNK         0.5031 
     58 O          31.5231    0.6674   -9.1293 O.2       9 UNK        -0.5390 
     59 N          32.9135   -0.9661   -9.8594 N.am      10 UNK        -0.4204 
     60 CA         34.0198   -0.1115  -10.2927 C.3       10 UNK         0.0237 
     61 CB         34.7987   -0.8288  -11.4118 C.3       10 UNK        -0.1985 
     62 C          34.9105    0.2615   -9.0931 C.2       10 UNK         0.4970 
     63 O          36.0456   -0.2090   -8.9971 O.2       10 UNK        -0.4914 
     64 N          34.3605    1.0714   -8.1810 N.am      11 UNK        -0.4285 
     65 CA         35.0174    1.5184   -6.9404 C.3       11 UNK         0.1007 
     66 C          36.2297    2.4749   -7.1430 C.2       11 UNK         0.5703 
     67 N          36.4104    3.0859   -8.3082 N.am      11 UNK        -0.7361 
     68 O          37.0235    2.6613   -6.2237 O.2       11 UNK        -0.4986 
     69 C69        34.0062    2.1355   -5.9391 C.3       12 UNK        -0.0947 
     70 S70        32.6055    1.0370   -5.5487 S.3       12 UNK        -0.2240 
     71 C71        33.1553    0.2626   -4.0016 C.3       12 UNK         0.0194 
     72 H72        25.1709   -8.3618   -5.9311 H         1 UNK         0.0906 
     73 H73        26.3820   -7.3732   -6.7501 H         1 UNK         0.0906 
     74 H74        26.8802   -8.7914   -5.8264 H         1 UNK         0.0906 
     75 H75        26.8251   -5.4663   -5.6567 H         1 UNK         0.3140 
     76 H76        27.4240   -5.3851   -2.8599 H         1 UNK         0.1085 
     77 H77        27.0679   -3.1041   -4.8725 H         1 UNK         0.0836 
     78 H78        27.6904   -2.9021   -3.2603 H         1 UNK         0.0836 
     79 H79        29.7999   -4.3070   -2.3472 H         1 UNK         0.0731 
     80 H80        31.2275   -4.3977   -3.3438 H         1 UNK         0.0731 
     81 H81        32.2966   -2.3230   -4.2596 H         1 UNK         0.1312 
     82 H82        31.4104    1.3476   -2.2331 H         1 UNK         0.1406 
     83 H83        29.0024   -2.1237   -1.5124 H         1 UNK         0.1631 
     84 H84        29.6740    1.4570   -0.5921 H         1 UNK         0.0717 
     85 H85        29.0472   -0.0311    0.0723 H         1 UNK         0.0717 
     86 H86        27.4545    2.5452   -3.3289 H         1 UNK         0.0934 
     87 H87        29.0935    1.9888   -3.1168 H         1 UNK         0.0934 
     88 H88        28.3524   -0.2726   -4.1479 H         1 UNK         0.0739 
     89 H89        26.1481   -0.5419   -4.3434 H         1 UNK         0.3093 
     90 H90        23.4457    1.5365   -5.3123 H         1 UNK         0.0818 
     91 H91        22.8546   -0.4020   -6.7139 H         1 UNK         0.0819 
     92 H92        24.2209    0.4210   -7.4465 H         1 UNK         0.0819 
     93 H93        24.4761   -1.0718   -6.5535 H         1 UNK         0.0819 
     94 H94        23.3530   -1.0830   -4.3273 H         1 UNK         0.3041 
     95 H95        23.8902   -0.6100   -0.9497 H         1 UNK         0.0784 
     96 H96        21.7006    0.5506   -0.9062 H         1 UNK         0.0793 
     97 H97        21.0359   -0.5879   -2.0659 H         1 UNK         0.0793 
     98 H98        21.5080   -1.1355   -0.4573 H         1 UNK         0.0793 
     99 H99        24.0577   -2.6930   -1.6228 H         1 UNK         0.3024 
    100 H100       22.9337   -4.7890   -2.1256 H         1 UNK         0.1171 
    101 H101       20.9944   -5.0211   -3.6804 H         1 UNK         0.0786 
    102 H102       22.2113   -6.2479   -3.9887 H         1 UNK         0.0786 
    103 H103       22.0648   -4.8591   -5.0657 H         1 UNK         0.0786 
    104 H104       24.4513   -5.0145   -4.5755 H         1 UNK         0.2977 
    105 H105       28.9804    2.9489   -4.9490 H         1 UNK         0.3127 
    106 H106       30.5569    2.2711   -7.2065 H         1 UNK         0.0770 
    107 H107       29.6491    5.0055   -6.1589 H         1 UNK         0.0814 
    108 H108       30.9529    4.7336   -7.3069 H         1 UNK         0.0814 
    109 H109       31.1048    4.1351   -5.6655 H         1 UNK         0.0814 
    110 H110       27.1526    2.8340   -7.1244 H         1 UNK         0.2983 
    111 H111       26.9624    3.7262   -9.9172 H         1 UNK         0.0947 
    112 H112       24.5414    3.4686   -9.5658 H         1 UNK         0.0806 
    113 H113       25.2308    4.3701   -8.2256 H         1 UNK         0.0806 
    114 H114       24.7984    2.6741   -8.0227 H         1 UNK         0.0806 
    115 H115       27.5657    0.7217   -8.3350 H         1 UNK         0.3000 
    116 H116       26.7283   -0.8417  -10.7562 H         1 UNK         0.0850 
    117 H117       26.4739   -2.7716   -9.1677 H         1 UNK         0.0810 
    118 H118       26.7343   -1.6838   -7.8094 H         1 UNK         0.0810 
    119 H119       25.3255   -1.4837   -8.8537 H         1 UNK         0.0810 
    120 H120       29.0901   -0.6619   -8.0225 H         1 UNK         0.3040 
    121 H121       30.9315   -2.4966   -9.4170 H         1 UNK         0.0766 
    122 H122       30.5652   -2.8459   -7.0218 H         1 UNK         0.0812 
    123 H123       30.9555   -1.1704   -6.6523 H         1 UNK         0.0812 
    124 H124       32.2061   -2.2612   -7.2343 H         1 UNK         0.0812 
    125 H125       33.0680   -1.9625   -9.9218 H         1 UNK         0.3205 
    126 H126       33.6196    0.8156  -10.7094 H         1 UNK         0.0754 
    127 H127       35.6280   -0.2144  -11.7651 H         1 UNK         0.0769 
    128 H128       34.1593   -1.0317  -12.2713 H         1 UNK         0.0769 
    129 H129       35.2166   -1.7781  -11.0739 H         1 UNK         0.0769 
    130 H130       33.3958    1.3545   -8.3104 H         1 UNK         0.2981 
    131 H131       35.4275    0.6234   -6.4686 H         1 UNK         0.0541 
    132 H132       35.7639    2.9421   -9.0668 H         1 UNK         0.3459 
    133 H133       37.2013    3.6992   -8.4268 H         1 UNK         0.3459 
    134 H134       33.5926    3.0591   -6.3480 H         1 UNK         0.0612 
    135 H135       34.5038    2.4162   -5.0091 H         1 UNK         0.0612 
    136 H136       33.5867    1.0170   -3.3421 H         1 UNK         0.0624 
    137 H137       33.9483   -0.4548   -4.2180 H         1 UNK         0.0624 
@<TRIPOS>BOND
     1    1    2 1    
     2    1   72 1    
     3    1   73 1    
     4    1   74 1    
     5    2    3 2    
     6    2    4 am   BACKBONE|DICT|INTERRES
     7    4    5 1    
     8    4   75 1    
     9    5    6 1    
    10    5   35 1    
    11    5   76 1    
    12    6    7 1    
    13    6   77 1    
    14    6   78 1    
    15    7    8 1    
    16    8    9 1    
    17    8   79 1    
    18    8   80 1    
    19    9   10 ar   
    20    9   14 ar   
    21   10   11 ar   
    22   10   81 1    
    23   11   12 ar   
    24   11   71 1    
    25   12   13 ar   
    26   12   82 1    
    27   13   14 ar   
    28   13   15 1    
    29   14   83 1    
    30   15   16 1    
    31   15   84 1    
    32   15   85 1    
    33   16   17 1    
    34   17   18 1    
    35   17   86 1    
    36   17   87 1    
    37   18   19 1    
    38   18   37 1    
    39   18   88 1    
    40   19   20 am   BACKBONE|DICT|INTERRES
    41   19   89 1    
    42   20   21 2    
    43   20   22 1    
    44   22   23 1    
    45   22   24 1    
    46   22   90 1    
    47   23   91 1    
    48   23   92 1    
    49   23   93 1    
    50   24   25 am   BACKBONE|DICT|INTERRES
    51   24   94 1    
    52   25   26 2    
    53   25   27 1    
    54   27   28 1    
    55   27   29 1    
    56   27   95 1    
    57   28   96 1    
    58   28   97 1    
    59   28   98 1    
    60   29   30 am   BACKBONE|DICT|INTERRES
    61   29   99 1    
    62   30   31 2    
    63   30   32 1    
    64   32   33 1    
    65   32   34 1    
    66   32  100 1    
    67   33  101 1    
    68   33  102 1    
    69   33  103 1    
    70   34   35 am   BACKBONE|DICT|INTERRES
    71   34  104 1    
    72   35   36 2    
    73   37   38 2    
    74   37   39 am   BACKBONE|DICT|INTERRES
    75   39   40 1    
    76   39  105 1    
    77   40   41 1    
    78   40   42 1    
    79   40  106 1    
    80   41  107 1    
    81   41  108 1    
    82   41  109 1    
    83   42   43 2    
    84   42   44 am   BACKBONE|DICT|INTERRES
    85   44   45 1    
    86   44  110 1    
    87   45   46 1    
    88   45   47 1    
    89   45  111 1    
    90   46  112 1    
    91   46  113 1    
    92   46  114 1    
    93   47   48 2    
    94   47   49 am   BACKBONE|DICT|INTERRES
    95   49   50 1    
    96   49  115 1    
    97   50   51 1    
    98   50   52 1    
    99   50  116 1    
   100   51  117 1    
   101   51  118 1    
   102   51  119 1    
   103   52   53 2    
   104   52   54 am   BACKBONE|DICT|INTERRES
   105   54   55 1    
   106   54  120 1    
   107   55   56 1    
   108   55   57 1    
   109   55  121 1    
   110   56  122 1    
   111   56  123 1    
   112   56  124 1    
   113   57   58 2    
   114   57   59 am   BACKBONE|DICT|INTERRES
   115   59   60 1    
   116   59  125 1    
   117   60   61 1    
   118   60   62 1    
   119   60  126 1    
   120   61  127 1    
   121   61  128 1    
   122   61  129 1    
   123   62   63 2    
   124   62   64 am   BACKBONE|DICT|INTERRES
   125   64   65 1    
   126   64  130 1    
   127   65   66 1    
   128   65   69 1    
   129   65  131 1    
   130   66   67 am   BACKBONE|DICT|INTERRES
   131   66   68 2    
   132   67  132 1    
   133   67  133 1    
   134   69   70 1    
   135   69  134 1    
   136   69  135 1    
   137   70   71 1    
   138   71  136 1    
   139   71  137 1    
@<TRIPOS>SUBSTRUCTURE
     1 UNK         1 GROUP             0       ****    0 ROOT    
