@<TRIPOS>MOLECULE
3R137
137   139    1
SMALL
USER_CHARGES


@<TRIPOS>ATOM
      1 CA         25.2859   -6.5649   -1.1283 C.3       0 UNK        -0.2020 
      2 C          25.6363   -5.1797   -0.6060 C.2       0 UNK         0.4855 
      3 O          24.7434   -4.3540   -0.4130 O.2       0 UNK        -0.5197 
      4 N          26.9276   -4.9219   -0.3667 N.am      1 UNK        -0.4892 
      5 CA         27.4617   -3.6202    0.0447 C.3       1 UNK         0.0835 
      6 C6         28.8501   -3.7398    0.7317 C.3       12 UNK        -0.0855 
      7 S7         30.0420   -4.8521   -0.0965 S.3       12 UNK        -0.2931 
      8 C8         31.3873   -3.7171   -0.5768 C.3       12 UNK         0.0378 
      9 C9         31.1263   -3.0240   -1.9079 C.ar      12 UNK        -0.0802 
     10 C10        31.1871   -1.6312   -2.0111 C.ar      12 UNK        -0.0944 
     11 C11        31.0016   -0.9972   -3.2442 C.ar      12 UNK        -0.0787 
     12 C12        30.7165   -1.7767   -4.3727 C.ar      12 UNK        -0.0862 
     13 C13        30.6664   -3.1745   -4.2916 C.ar      12 UNK        -0.0733 
     14 C14        30.8786   -3.7844   -3.0537 C.ar      12 UNK        -0.0832 
     15 C15        30.4265   -4.0763   -5.5051 C.3       12 UNK         0.0240 
     16 S16        29.7999   -3.2546   -7.0080 S.3       12 UNK        -0.2522 
     17 C17        28.1328   -2.7713   -6.4623 C.3       12 UNK        -0.0967 
     18 CA         27.4638   -1.7355   -7.3977 C.3       5 UNK         0.0660 
     19 N          26.0173   -1.7320   -7.1791 N.am      5 UNK        -0.4015 
     20 C          25.1129   -1.0277   -7.8704 C.2       4 UNK         0.4946 
     21 O          25.3824   -0.3601   -8.8673 O.2       4 UNK        -0.5353 
     22 CA         23.6770   -1.0108   -7.3089 C.3       4 UNK         0.0277 
     23 CB         22.8078   -2.0530   -8.0292 C.3       4 UNK        -0.1981 
     24 N          23.5978   -1.2239   -5.8546 N.am      4 UNK        -0.4209 
     25 C          24.2094   -0.4684   -4.9283 C.2       3 UNK         0.4942 
     26 O          24.9014    0.5087   -5.2195 O.2       3 UNK        -0.5208 
     27 CA         24.0822   -0.8918   -3.4524 C.3       3 UNK         0.0250 
     28 CB         23.4133   -2.2672   -3.2478 C.3       3 UNK        -0.1990 
     29 N          25.4095   -0.9232   -2.8359 N.am      3 UNK        -0.4232 
     30 C          25.9972    0.0864   -2.1829 C.2       2 UNK         0.4993 
     31 O          25.4482    1.1653   -1.9515 O.2       2 UNK        -0.5286 
     32 CA         27.4329   -0.1746   -1.6788 C.3       2 UNK         0.0209 
     33 CB         28.0485    1.0492   -0.9721 C.3       2 UNK        -0.1931 
     34 N          27.4902   -1.3135   -0.7601 N.am      2 UNK        -0.4546 
     35 C          27.4554   -2.6039   -1.1169 C.2       1 UNK         0.5154 
     36 O          27.3908   -2.9804   -2.2916 O.2       1 UNK        -0.5181 
     37 C          28.0946   -0.3281   -7.2553 C.2       5 UNK         0.5014 
     38 O          29.0082    0.0028   -8.0138 O.2       5 UNK        -0.5248 
     39 N          27.5808    0.4919   -6.3241 N.am      6 UNK        -0.4434 
     40 CA         28.0133    1.8774   -6.1320 C.3       6 UNK         0.0363 
     41 CB         27.6901    2.3397   -4.7052 C.3       6 UNK        -0.1936 
     42 C          27.3900    2.8259   -7.1632 C.2       6 UNK         0.5081 
     43 O          28.0593    3.7677   -7.5843 O.2       6 UNK        -0.5248 
     44 N          26.1496    2.5472   -7.5920 N.am      7 UNK        -0.4718 
     45 CA         25.4765    3.2673   -8.6804 C.3       7 UNK         0.0273 
     46 CB         23.9925    2.8713   -8.7352 C.3       7 UNK        -0.1935 
     47 C          26.1627    3.0361  -10.0392 C.2       7 UNK         0.5018 
     48 O          26.3037    3.9786  -10.8186 O.2       7 UNK        -0.5186 
     49 N          26.6227    1.7984  -10.2699 N.am      8 UNK        -0.4240 
     50 CA         27.4697    1.4057  -11.3992 C.3       8 UNK         0.0235 
     51 CB         27.4524   -0.1278  -11.5171 C.3       8 UNK        -0.2000 
     52 C          28.9230    1.9095  -11.2874 C.2       8 UNK         0.4941 
     53 O          29.6380    1.8769  -12.2896 O.2       8 UNK        -0.5273 
     54 N          29.3346    2.3400  -10.0838 N.am      9 UNK        -0.4262 
     55 CA         30.6802    2.7743   -9.6893 C.3       9 UNK         0.0264 
     56 CB         31.0600    4.0948  -10.3919 C.3       9 UNK        -0.1955 
     57 C          31.7347    1.6644   -9.8681 C.2       9 UNK         0.5031 
     58 O          32.8443    1.9322  -10.3332 O.2       9 UNK        -0.5390 
     59 N          31.3625    0.4336   -9.4958 N.am      10 UNK        -0.4204 
     60 CA         32.1653   -0.7806   -9.6558 C.3       10 UNK         0.0237 
     61 CB         31.2603   -1.8835  -10.2350 C.3       10 UNK        -0.1985 
     62 C          32.8553   -1.2157   -8.3474 C.2       10 UNK         0.4970 
     63 O          33.3324   -2.3491   -8.2701 O.2       10 UNK        -0.4914 
     64 N          32.9016   -0.3227   -7.3491 N.am      11 UNK        -0.4285 
     65 CA         33.5448   -0.5212   -6.0410 C.3       11 UNK         0.1007 
     66 C          35.0622   -0.8410   -6.1403 C.2       11 UNK         0.5703 
     67 N          35.5765   -1.6926   -5.2630 N.am      11 UNK        -0.7361 
     68 O          35.7821   -0.2892   -6.9711 O.2       11 UNK        -0.4986 
     69 C69        33.3184    0.6927   -5.0981 C.3       12 UNK        -0.0947 
     70 S70        31.5727    1.2041   -4.9467 S.3       12 UNK        -0.2240 
     71 C71        31.1056    0.5272   -3.3151 C.3       12 UNK         0.0194 
     72 H72        24.8028   -6.4863   -2.1019 H         1 UNK         0.0906 
     73 H73        24.5975   -7.0611   -0.4447 H         1 UNK         0.0906 
     74 H74        26.1687   -7.1948   -1.2376 H         1 UNK         0.0906 
     75 H75        27.6302   -5.6192   -0.5711 H         1 UNK         0.3140 
     76 H76        26.7734   -3.2208    0.7938 H         1 UNK         0.1085 
     77 H77        29.2995   -2.7572    0.8868 H         1 UNK         0.0836 
     78 H78        28.7037   -4.1406    1.7360 H         1 UNK         0.0836 
     79 H79        31.5647   -2.9944    0.2211 H         1 UNK         0.0731 
     80 H80        32.3078   -4.2953   -0.6690 H         1 UNK         0.0731 
     81 H81        31.3965   -1.0380   -1.1313 H         1 UNK         0.1312 
     82 H82        30.5601   -1.2906   -5.3238 H         1 UNK         0.1406 
     83 H83        30.8519   -4.8632   -2.9776 H         1 UNK         0.1631 
     84 H84        29.7302   -4.8720   -5.2354 H         1 UNK         0.0717 
     85 H85        31.3692   -4.5630   -5.7582 H         1 UNK         0.0717 
     86 H86        27.5420   -3.6886   -6.4355 H         1 UNK         0.0934 
     87 H87        28.1609   -2.4080   -5.4328 H         1 UNK         0.0934 
     88 H88        27.6179   -2.0526   -8.4315 H         1 UNK         0.0739 
     89 H89        25.6862   -2.2603   -6.3864 H         1 UNK         0.3093 
     90 H90        23.2635   -0.0214   -7.5132 H         1 UNK         0.0818 
     91 H91        22.8318   -1.9007   -9.1095 H         1 UNK         0.0819 
     92 H92        23.1505   -3.0703   -7.8362 H         1 UNK         0.0819 
     93 H93        21.7649   -1.9840   -7.7190 H         1 UNK         0.0819 
     94 H94        23.0436   -2.0082   -5.5413 H         1 UNK         0.3041 
     95 H95        23.4648   -0.1394   -2.9576 H         1 UNK         0.0784 
     96 H96        22.3885   -2.2751   -3.6213 H         1 UNK         0.0793 
     97 H97        23.9624   -3.0703   -3.7416 H         1 UNK         0.0793 
     98 H98        23.3603   -2.5173   -2.1875 H         1 UNK         0.0793 
     99 H99        25.9452   -1.7805   -2.9374 H         1 UNK         0.3024 
    100 H100       28.0444   -0.4026   -2.5552 H         1 UNK         0.1171 
    101 H101       28.0440    1.9267   -1.6192 H         1 UNK         0.0786 
    102 H102       29.0846    0.8632   -0.6886 H         1 UNK         0.0786 
    103 H103       27.4967    1.3130   -0.0690 H         1 UNK         0.0786 
    104 H104       27.5049   -1.0836    0.2233 H         1 UNK         0.2977 
    105 H105       26.7597    0.2070   -5.7993 H         1 UNK         0.3127 
    106 H106       29.0957    1.9242   -6.2615 H         1 UNK         0.0770 
    107 H107       28.1419    1.6767   -3.9721 H         1 UNK         0.0814 
    108 H108       28.0825    3.3409   -4.5231 H         1 UNK         0.0814 
    109 H109       26.6168    2.3713   -4.5155 H         1 UNK         0.0814 
    110 H110       25.6607    1.7629   -7.1812 H         1 UNK         0.2983 
    111 H111       25.5345    4.3354   -8.4587 H         1 UNK         0.0947 
    112 H112       23.8593    1.8262   -9.0136 H         1 UNK         0.0806 
    113 H113       23.4606    3.4711   -9.4748 H         1 UNK         0.0806 
    114 H114       23.5012    3.0304   -7.7751 H         1 UNK         0.0806 
    115 H115       26.3645    1.0608   -9.6172 H         1 UNK         0.3000 
    116 H116       27.0438    1.8290  -12.3113 H         1 UNK         0.0850 
    117 H117       28.0358   -0.4623  -12.3760 H         1 UNK         0.0810 
    118 H118       26.4377   -0.5050  -11.6469 H         1 UNK         0.0810 
    119 H119       27.8747   -0.6031  -10.6307 H         1 UNK         0.0810 
    120 H120       28.6566    2.3248   -9.3340 H         1 UNK         0.3040 
    121 H121       30.6314    2.9747   -8.6178 H         1 UNK         0.0766 
    122 H122       31.1762    3.9628  -11.4681 H         1 UNK         0.0812 
    123 H123       32.0038    4.4840  -10.0083 H         1 UNK         0.0812 
    124 H124       30.3028    4.8614  -10.2270 H         1 UNK         0.0812 
    125 H125       30.4492    0.3089   -9.0550 H         1 UNK         0.3205 
    126 H126       32.9657   -0.6028  -10.3768 H         1 UNK         0.0754 
    127 H127       31.8024   -2.8210  -10.3651 H         1 UNK         0.0769 
    128 H128       30.8731   -1.5975  -11.2131 H         1 UNK         0.0769 
    129 H129       30.4059   -2.0825   -9.5892 H         1 UNK         0.0769 
    130 H130       32.4883    0.5840   -7.5001 H         1 UNK         0.2981 
    131 H131       33.0664   -1.3937   -5.5968 H         1 UNK         0.0541 
    132 H132       36.5624   -1.8989   -5.3013 H         1 UNK         0.3459 
    133 H133       34.9980   -2.1388   -4.5685 H         1 UNK         0.3459 
    134 H134       33.8764    1.5585   -5.4597 H         1 UNK         0.0612 
    135 H135       33.7107    0.4771   -4.1027 H         1 UNK         0.0612 
    136 H136       30.1421    0.9494   -3.0362 H         1 UNK         0.0624 
    137 H137       31.8218    0.8890   -2.5758 H         1 UNK         0.0624 
@<TRIPOS>BOND
     1    1    2 1    
     2    1   72 1    
     3    1   73 1    
     4    1   74 1    
     5    2    3 2    
     6    2    4 am   BACKBONE|DICT|INTERRES
     7    4    5 1    
     8    4   75 1    
     9    5    6 1    
    10    5   35 1    
    11    5   76 1    
    12    6    7 1    
    13    6   77 1    
    14    6   78 1    
    15    7    8 1    
    16    8    9 1    
    17    8   79 1    
    18    8   80 1    
    19    9   10 ar   
    20    9   14 ar   
    21   10   11 ar   
    22   10   81 1    
    23   11   12 ar   
    24   11   71 1    
    25   12   13 ar   
    26   12   82 1    
    27   13   14 ar   
    28   13   15 1    
    29   14   83 1    
    30   15   16 1    
    31   15   84 1    
    32   15   85 1    
    33   16   17 1    
    34   17   18 1    
    35   17   86 1    
    36   17   87 1    
    37   18   19 1    
    38   18   37 1    
    39   18   88 1    
    40   19   20 am   BACKBONE|DICT|INTERRES
    41   19   89 1    
    42   20   21 2    
    43   20   22 1    
    44   22   23 1    
    45   22   24 1    
    46   22   90 1    
    47   23   91 1    
    48   23   92 1    
    49   23   93 1    
    50   24   25 am   BACKBONE|DICT|INTERRES
    51   24   94 1    
    52   25   26 2    
    53   25   27 1    
    54   27   28 1    
    55   27   29 1    
    56   27   95 1    
    57   28   96 1    
    58   28   97 1    
    59   28   98 1    
    60   29   30 am   BACKBONE|DICT|INTERRES
    61   29   99 1    
    62   30   31 2    
    63   30   32 1    
    64   32   33 1    
    65   32   34 1    
    66   32  100 1    
    67   33  101 1    
    68   33  102 1    
    69   33  103 1    
    70   34   35 am   BACKBONE|DICT|INTERRES
    71   34  104 1    
    72   35   36 2    
    73   37   38 2    
    74   37   39 am   BACKBONE|DICT|INTERRES
    75   39   40 1    
    76   39  105 1    
    77   40   41 1    
    78   40   42 1    
    79   40  106 1    
    80   41  107 1    
    81   41  108 1    
    82   41  109 1    
    83   42   43 2    
    84   42   44 am   BACKBONE|DICT|INTERRES
    85   44   45 1    
    86   44  110 1    
    87   45   46 1    
    88   45   47 1    
    89   45  111 1    
    90   46  112 1    
    91   46  113 1    
    92   46  114 1    
    93   47   48 2    
    94   47   49 am   BACKBONE|DICT|INTERRES
    95   49   50 1    
    96   49  115 1    
    97   50   51 1    
    98   50   52 1    
    99   50  116 1    
   100   51  117 1    
   101   51  118 1    
   102   51  119 1    
   103   52   53 2    
   104   52   54 am   BACKBONE|DICT|INTERRES
   105   54   55 1    
   106   54  120 1    
   107   55   56 1    
   108   55   57 1    
   109   55  121 1    
   110   56  122 1    
   111   56  123 1    
   112   56  124 1    
   113   57   58 2    
   114   57   59 am   BACKBONE|DICT|INTERRES
   115   59   60 1    
   116   59  125 1    
   117   60   61 1    
   118   60   62 1    
   119   60  126 1    
   120   61  127 1    
   121   61  128 1    
   122   61  129 1    
   123   62   63 2    
   124   62   64 am   BACKBONE|DICT|INTERRES
   125   64   65 1    
   126   64  130 1    
   127   65   66 1    
   128   65   69 1    
   129   65  131 1    
   130   66   67 am   BACKBONE|DICT|INTERRES
   131   66   68 2    
   132   67  132 1    
   133   67  133 1    
   134   69   70 1    
   135   69  134 1    
   136   69  135 1    
   137   70   71 1    
   138   71  136 1    
   139   71  137 1    
@<TRIPOS>SUBSTRUCTURE
     1 UNK         1 GROUP             0       ****    0 ROOT    
