@<TRIPOS>MOLECULE
3R137
137   139    1
SMALL
USER_CHARGES


@<TRIPOS>ATOM
      1 CA         27.4450   -5.3462    2.2868 C.3       0 UNK        -0.2020 
      2 C          27.1779   -3.8727    2.0195 C.2       0 UNK         0.4855 
      3 O          26.1878   -3.3308    2.5112 O.2       0 UNK        -0.5197 
      4 N          28.0559   -3.2202    1.2470 N.am      1 UNK        -0.4892 
      5 CA         27.9515   -1.8116    0.8430 C.3       1 UNK         0.0835 
      6 C6         29.2894   -1.2623    0.2794 C.3       12 UNK        -0.0855 
      7 S7         30.1109   -2.3748   -0.9167 S.3       12 UNK        -0.2931 
      8 C8         29.8399   -1.4991   -2.4846 C.3       12 UNK         0.0378 
      9 C9         30.3241   -2.3458   -3.6499 C.ar      12 UNK        -0.0802 
     10 C10        31.6565   -2.2831   -4.0697 C.ar      12 UNK        -0.0944 
     11 C11        32.1084   -3.0923   -5.1172 C.ar      12 UNK        -0.0787 
     12 C12        31.2095   -3.9537   -5.7563 C.ar      12 UNK        -0.0862 
     13 C13        29.8779   -4.0361   -5.3352 C.ar      12 UNK        -0.0733 
     14 C14        29.4431   -3.2270   -4.2810 C.ar      12 UNK        -0.0832 
     15 C15        28.9363   -5.0506   -5.9727 C.3       12 UNK         0.0240 
     16 S16        27.9981   -4.3600   -7.3711 S.3       12 UNK        -0.2522 
     17 C17        26.6041   -3.5579   -6.5085 C.3       12 UNK        -0.0967 
     18 CA         26.0044   -2.3614   -7.2821 C.3       5 UNK         0.0660 
     19 N          24.7835   -1.8706   -6.6477 N.am      5 UNK        -0.4015 
     20 C          23.8016   -1.2218   -7.2889 C.2       4 UNK         0.4946 
     21 O          23.7600   -1.0690   -8.5098 O.2       4 UNK        -0.5353 
     22 CA         22.6801   -0.6239   -6.4201 C.3       4 UNK         0.0277 
     23 CB         21.5137   -1.6164   -6.2884 C.3       4 UNK        -0.1981 
     24 N          23.1325   -0.2238   -5.0841 N.am      4 UNK        -0.4209 
     25 C          24.0126    0.7587   -4.8420 C.2       3 UNK         0.4942 
     26 O          24.5110    1.4630   -5.7188 O.2       3 UNK        -0.5208 
     27 CA         24.4427    0.9587   -3.3796 C.3       3 UNK         0.0250 
     28 CB         23.4803    1.9192   -2.6634 C.3       3 UNK        -0.1990 
     29 N          24.5528   -0.2870   -2.6128 N.am      3 UNK        -0.4232 
     30 C          25.3637   -1.3139   -2.9049 C.2       2 UNK         0.4993 
     31 O          26.0913   -1.3554   -3.9006 O.2       2 UNK        -0.5286 
     32 CA         25.3400   -2.5043   -1.9295 C.3       2 UNK         0.0209 
     33 CB         25.3101   -3.8437   -2.6876 C.3       2 UNK        -0.1931 
     34 N          26.4746   -2.5051   -1.0015 N.am      2 UNK        -0.4546 
     35 C          26.7636   -1.5471   -0.1069 C.2       1 UNK         0.5154 
     36 O          26.1134   -0.5089    0.0224 O.2       1 UNK        -0.5181 
     37 C          26.9980   -1.1981   -7.4483 C.2       5 UNK         0.5014 
     38 O          27.4795   -0.9818   -8.5599 O.2       5 UNK        -0.5248 
     39 N          27.2463   -0.4419   -6.3660 N.am      6 UNK        -0.4434 
     40 CA         28.1868    0.6867   -6.3127 C.3       6 UNK         0.0363 
     41 CB         28.2260    1.2530   -4.8862 C.3       6 UNK        -0.1936 
     42 C          27.9053    1.8175   -7.3227 C.2       6 UNK         0.5081 
     43 O          28.8288    2.5366   -7.7028 O.2       6 UNK        -0.5248 
     44 N          26.6446    1.9504   -7.7560 N.am      7 UNK        -0.4718 
     45 CA         26.2143    2.8416   -8.8356 C.3       7 UNK         0.0273 
     46 CB         24.6785    2.8383   -8.9004 C.3       7 UNK        -0.1935 
     47 C          26.8092    2.4871  -10.2141 C.2       7 UNK         0.5018 
     48 O          26.9247    3.3791  -11.0558 O.2       7 UNK        -0.5186 
     49 N          27.1664    1.2124  -10.4242 N.am      8 UNK        -0.4240 
     50 CA         27.7943    0.7041  -11.6447 C.3       8 UNK         0.0235 
     51 CB         27.0084   -0.5176  -12.1503 C.3       8 UNK        -0.2000 
     52 C          29.2633    0.3367  -11.3919 C.2       8 UNK         0.4941 
     53 O          30.1295    0.7240  -12.1776 O.2       8 UNK        -0.5273 
     54 N          29.5245   -0.3991  -10.3041 N.am      9 UNK        -0.4262 
     55 CA         30.8528   -0.8038   -9.8561 C.3       9 UNK         0.0264 
     56 CB         30.7213   -2.0604   -8.9747 C.3       9 UNK        -0.1955 
     57 C          31.5115    0.3593   -9.1024 C.2       9 UNK         0.5031 
     58 O          31.3319    0.4829   -7.8899 O.2       9 UNK        -0.5390 
     59 N          32.2489    1.2064   -9.8324 N.am      10 UNK        -0.4204 
     60 CA         32.9448    2.3974   -9.3289 C.3       10 UNK         0.0237 
     61 CB         33.3053    3.3017  -10.5227 C.3       10 UNK        -0.1985 
     62 C          34.1679    2.0599   -8.4470 C.2       10 UNK         0.4970 
     63 O          35.2918    2.4566   -8.7606 O.2       10 UNK        -0.4914 
     64 N          33.9197    1.3180   -7.3651 N.am      11 UNK        -0.4285 
     65 CA         34.9031    0.8440   -6.3827 C.3       11 UNK         0.1007 
     66 C          35.4197    1.9374   -5.4027 C.2       11 UNK         0.5703 
     67 N          34.8269    3.1248   -5.3515 N.am      11 UNK        -0.7361 
     68 O          36.3861    1.7052   -4.6802 O.2       11 UNK        -0.4986 
     69 C69        34.3589   -0.3868   -5.6109 C.3       12 UNK        -0.0947 
     70 S70        33.9822   -1.7894   -6.7156 S.3       12 UNK        -0.2240 
     71 C71        33.5792   -3.0937   -5.5147 C.3       12 UNK         0.0194 
     72 H72        26.6143   -5.9500    1.9226 H         1 UNK         0.0906 
     73 H73        28.3554   -5.6916    1.7970 H         1 UNK         0.0906 
     74 H74        27.5494   -5.5204    3.3574 H         1 UNK         0.0906 
     75 H75        28.8573   -3.7094    0.8707 H         1 UNK         0.3140 
     76 H76        27.7322   -1.2413    1.7490 H         1 UNK         0.1085 
     77 H77        29.9860   -1.1215    1.1073 H         1 UNK         0.0836 
     78 H78        29.1592   -0.2682   -0.1538 H         1 UNK         0.0836 
     79 H79        28.7773   -1.2782   -2.5968 H         1 UNK         0.0731 
     80 H80        30.3616   -0.5408   -2.4687 H         1 UNK         0.0731 
     81 H81        32.3478   -1.6263   -3.5602 H         1 UNK         0.1312 
     82 H82        31.5558   -4.5879   -6.5610 H         1 UNK         0.1406 
     83 H83        28.4263   -3.2966   -3.9239 H         1 UNK         0.1631 
     84 H84        28.2467   -5.4504   -5.2275 H         1 UNK         0.0717 
     85 H85        29.5107   -5.9050   -6.3340 H         1 UNK         0.0717 
     86 H86        25.8365   -4.3181   -6.3545 H         1 UNK         0.0934 
     87 H87        26.9136   -3.2448   -5.5145 H         1 UNK         0.0934 
     88 H88        25.7478   -2.7169   -8.2829 H         1 UNK         0.0739 
     89 H89        24.7654   -1.8972   -5.6375 H         1 UNK         0.3093 
     90 H90        22.3146    0.2703   -6.9300 H         1 UNK         0.0818 
     91 H91        20.6760   -1.1756   -5.7474 H         1 UNK         0.0819 
     92 H92        21.1417   -1.9124   -7.2705 H         1 UNK         0.0819 
     93 H93        21.8116   -2.5261   -5.7655 H         1 UNK         0.0819 
     94 H94        22.7640   -0.7413   -4.2993 H         1 UNK         0.3041 
     95 H95        25.4308    1.4193   -3.3867 H         1 UNK         0.0784 
     96 H96        23.3997    2.8644   -3.2025 H         1 UNK         0.0793 
     97 H97        22.4754    1.5025   -2.5836 H         1 UNK         0.0793 
     98 H98        23.8288    2.1523   -1.6569 H         1 UNK         0.0793 
     99 H99        24.0302   -0.3239   -1.7488 H         1 UNK         0.3024 
    100 H100       24.4269   -2.4416   -1.3335 H         1 UNK         0.1171 
    101 H101       24.4904   -3.8698   -3.4069 H         1 UNK         0.0786 
    102 H102       25.1649   -4.6810   -2.0047 H         1 UNK         0.0786 
    103 H103       26.2332   -4.0209   -3.2391 H         1 UNK         0.0786 
    104 H104       27.0780   -3.3140   -1.0247 H         1 UNK         0.2977 
    105 H105       26.8074   -0.7010   -5.4844 H         1 UNK         0.3127 
    106 H106       29.1716    0.2782   -6.5412 H         1 UNK         0.0770 
    107 H107       27.2954    1.7597   -4.6345 H         1 UNK         0.0814 
    108 H108       29.0304    1.9823   -4.7826 H         1 UNK         0.0814 
    109 H109       28.3979    0.4717   -4.1481 H         1 UNK         0.0814 
    110 H110       25.9249    1.3970   -7.3042 H         1 UNK         0.2983 
    111 H111       26.5481    3.8512   -8.5871 H         1 UNK         0.0947 
    112 H112       24.3173    3.5034   -9.6860 H         1 UNK         0.0806 
    113 H113       24.2415    3.1794   -7.9616 H         1 UNK         0.0806 
    114 H114       24.2869    1.8414   -9.1086 H         1 UNK         0.0806 
    115 H115       27.0758    0.5519   -9.6570 H         1 UNK         0.3000 
    116 H116       27.7753    1.4637  -12.4292 H         1 UNK         0.0850 
    117 H117       27.4635   -0.9292  -13.0522 H         1 UNK         0.0810 
    118 H118       25.9814   -0.2494  -12.3987 H         1 UNK         0.0810 
    119 H119       26.9732   -1.3155  -11.4071 H         1 UNK         0.0810 
    120 H120       28.7548   -0.6500   -9.6828 H         1 UNK         0.3040 
    121 H121       31.4667   -1.0617  -10.7217 H         1 UNK         0.0766 
    122 H122       30.2543   -2.8816   -9.5183 H         1 UNK         0.0812 
    123 H123       30.1235   -1.8736   -8.0810 H         1 UNK         0.0812 
    124 H124       31.6999   -2.4061   -8.6411 H         1 UNK         0.0812 
    125 H125       32.3109    1.0387  -10.8275 H         1 UNK         0.3205 
    126 H126       32.2450    2.9501   -8.6982 H         1 UNK         0.0754 
    127 H127       33.7810    4.2240  -10.1861 H         1 UNK         0.0769 
    128 H128       32.4168    3.5864  -11.0869 H         1 UNK         0.0769 
    129 H129       33.9956    2.8091  -11.2088 H         1 UNK         0.0769 
    130 H130       32.9631    0.9928   -7.2368 H         1 UNK         0.2981 
    131 H131       35.7820    0.5171   -6.9415 H         1 UNK         0.0541 
    132 H132       34.0336    3.3241   -5.9388 H         1 UNK         0.3459 
    133 H133       35.1760    3.8246   -4.7160 H         1 UNK         0.3459 
    134 H134       33.4547   -0.1191   -5.0622 H         1 UNK         0.0612 
    135 H135       35.0857   -0.7283   -4.8714 H         1 UNK         0.0612 
    136 H136       33.8395   -4.0563   -5.9574 H         1 UNK         0.0624 
    137 H137       34.2091   -2.9936   -4.6296 H         1 UNK         0.0624 
@<TRIPOS>BOND
     1    1    2 1    
     2    1   72 1    
     3    1   73 1    
     4    1   74 1    
     5    2    3 2    
     6    2    4 am   BACKBONE|DICT|INTERRES
     7    4    5 1    
     8    4   75 1    
     9    5    6 1    
    10    5   35 1    
    11    5   76 1    
    12    6    7 1    
    13    6   77 1    
    14    6   78 1    
    15    7    8 1    
    16    8    9 1    
    17    8   79 1    
    18    8   80 1    
    19    9   10 ar   
    20    9   14 ar   
    21   10   11 ar   
    22   10   81 1    
    23   11   12 ar   
    24   11   71 1    
    25   12   13 ar   
    26   12   82 1    
    27   13   14 ar   
    28   13   15 1    
    29   14   83 1    
    30   15   16 1    
    31   15   84 1    
    32   15   85 1    
    33   16   17 1    
    34   17   18 1    
    35   17   86 1    
    36   17   87 1    
    37   18   19 1    
    38   18   37 1    
    39   18   88 1    
    40   19   20 am   BACKBONE|DICT|INTERRES
    41   19   89 1    
    42   20   21 2    
    43   20   22 1    
    44   22   23 1    
    45   22   24 1    
    46   22   90 1    
    47   23   91 1    
    48   23   92 1    
    49   23   93 1    
    50   24   25 am   BACKBONE|DICT|INTERRES
    51   24   94 1    
    52   25   26 2    
    53   25   27 1    
    54   27   28 1    
    55   27   29 1    
    56   27   95 1    
    57   28   96 1    
    58   28   97 1    
    59   28   98 1    
    60   29   30 am   BACKBONE|DICT|INTERRES
    61   29   99 1    
    62   30   31 2    
    63   30   32 1    
    64   32   33 1    
    65   32   34 1    
    66   32  100 1    
    67   33  101 1    
    68   33  102 1    
    69   33  103 1    
    70   34   35 am   BACKBONE|DICT|INTERRES
    71   34  104 1    
    72   35   36 2    
    73   37   38 2    
    74   37   39 am   BACKBONE|DICT|INTERRES
    75   39   40 1    
    76   39  105 1    
    77   40   41 1    
    78   40   42 1    
    79   40  106 1    
    80   41  107 1    
    81   41  108 1    
    82   41  109 1    
    83   42   43 2    
    84   42   44 am   BACKBONE|DICT|INTERRES
    85   44   45 1    
    86   44  110 1    
    87   45   46 1    
    88   45   47 1    
    89   45  111 1    
    90   46  112 1    
    91   46  113 1    
    92   46  114 1    
    93   47   48 2    
    94   47   49 am   BACKBONE|DICT|INTERRES
    95   49   50 1    
    96   49  115 1    
    97   50   51 1    
    98   50   52 1    
    99   50  116 1    
   100   51  117 1    
   101   51  118 1    
   102   51  119 1    
   103   52   53 2    
   104   52   54 am   BACKBONE|DICT|INTERRES
   105   54   55 1    
   106   54  120 1    
   107   55   56 1    
   108   55   57 1    
   109   55  121 1    
   110   56  122 1    
   111   56  123 1    
   112   56  124 1    
   113   57   58 2    
   114   57   59 am   BACKBONE|DICT|INTERRES
   115   59   60 1    
   116   59  125 1    
   117   60   61 1    
   118   60   62 1    
   119   60  126 1    
   120   61  127 1    
   121   61  128 1    
   122   61  129 1    
   123   62   63 2    
   124   62   64 am   BACKBONE|DICT|INTERRES
   125   64   65 1    
   126   64  130 1    
   127   65   66 1    
   128   65   69 1    
   129   65  131 1    
   130   66   67 am   BACKBONE|DICT|INTERRES
   131   66   68 2    
   132   67  132 1    
   133   67  133 1    
   134   69   70 1    
   135   69  134 1    
   136   69  135 1    
   137   70   71 1    
   138   71  136 1    
   139   71  137 1    
@<TRIPOS>SUBSTRUCTURE
     1 UNK         1 GROUP             0       ****    0 ROOT    
