@<TRIPOS>MOLECULE
3R137
137   139    1
SMALL
USER_CHARGES


@<TRIPOS>ATOM
      1 CA         25.0460   -5.9501   -1.4503 C.3       0 UNK        -0.2020 
      2 C          25.6008   -4.5990   -1.8734 C.2       0 UNK         0.4855 
      3 O          25.7358   -4.3464   -3.0713 O.2       0 UNK        -0.5197 
      4 N          25.9005   -3.7250   -0.8986 N.am      1 UNK        -0.4892 
      5 CA         26.5058   -2.3907   -1.0643 C.3       1 UNK         0.0835 
      6 C6         28.0202   -2.4684   -1.3786 C.3       12 UNK        -0.0855 
      7 S7         28.9893   -3.0585    0.0501 S.3       12 UNK        -0.2931 
      8 C8         30.4104   -3.8651   -0.7698 C.3       12 UNK         0.0378 
      9 C9         31.1139   -2.9960   -1.8128 C.ar      12 UNK        -0.0802 
     10 C10        31.5750   -3.5819   -2.9954 C.ar      12 UNK        -0.0944 
     11 C11        32.1877   -2.8073   -3.9850 C.ar      12 UNK        -0.0787 
     12 C12        32.3413   -1.4315   -3.7872 C.ar      12 UNK        -0.0862 
     13 C13        31.8973   -0.8339   -2.6043 C.ar      12 UNK        -0.0733 
     14 C14        31.3022   -1.6229   -1.6160 C.ar      12 UNK        -0.0832 
     15 C15        32.0486    0.6628   -2.3834 C.3       12 UNK         0.0240 
     16 S16        30.5412    1.5645   -2.8675 S.3       12 UNK        -0.2522 
     17 C17        30.8399    1.8820   -4.6427 C.3       12 UNK        -0.0967 
     18 CA         29.6272    1.5942   -5.5611 C.3       5 UNK         0.0660 
     19 N          29.1547    0.2088   -5.4673 N.am      5 UNK        -0.4015 
     20 C          28.3365   -0.3727   -6.3562 C.2       4 UNK         0.4946 
     21 O          27.9210    0.2096   -7.3607 O.2       4 UNK        -0.5353 
     22 CA         27.9620   -1.8449   -6.1326 C.3       4 UNK         0.0277 
     23 CB         28.7998   -2.5390   -5.0471 C.3       4 UNK        -0.1981 
     24 N          26.5467   -1.9674   -5.7863 N.am      4 UNK        -0.4209 
     25 C          25.6035   -2.4328   -6.6184 C.2       3 UNK         0.4942 
     26 O          25.8170   -2.7123   -7.7991 O.2       3 UNK        -0.5208 
     27 CA         24.1879   -2.6680   -6.0595 C.3       3 UNK         0.0250 
     28 CB         23.8122   -4.1572   -6.1585 C.3       3 UNK        -0.1990 
     29 N          24.0441   -2.2517   -4.6638 N.am      3 UNK        -0.4232 
     30 C          23.4863   -1.1008   -4.2638 C.2       2 UNK         0.4993 
     31 O          23.0363   -0.2531   -5.0333 O.2       2 UNK        -0.5286 
     32 CA         23.3967   -0.8416   -2.7482 C.3       2 UNK         0.0209 
     33 CB         21.9897   -1.1942   -2.2377 C.3       2 UNK        -0.1931 
     34 N          24.3847   -1.5559   -1.9348 N.am      2 UNK        -0.4546 
     35 C          25.7197   -1.5018   -2.0573 C.2       1 UNK         0.5154 
     36 O          26.3042   -0.8416   -2.9218 O.2       1 UNK        -0.5181 
     37 C          28.4942    2.6262   -5.3886 C.2       5 UNK         0.5014 
     38 O          28.5406    3.6767   -6.0288 O.2       5 UNK        -0.5248 
     39 N          27.4674    2.2919   -4.5927 N.am      6 UNK        -0.4434 
     40 CA         26.2618    3.1064   -4.4094 C.3       6 UNK         0.0363 
     41 CB         25.4485    2.5398   -3.2398 C.3       6 UNK        -0.1936 
     42 C          25.3883    3.2023   -5.6755 C.2       6 UNK         0.5081 
     43 O          24.6779    4.1937   -5.8413 O.2       6 UNK        -0.5248 
     44 N          25.4777    2.1962   -6.5568 N.am      7 UNK        -0.4718 
     45 CA         24.8392    2.1804   -7.8762 C.3       7 UNK         0.0273 
     46 CB         24.4943    0.7268   -8.2421 C.3       7 UNK        -0.1935 
     47 C          25.7271    2.8070   -8.9679 C.2       7 UNK         0.5018 
     48 O          25.3061    2.8483  -10.1243 O.2       7 UNK        -0.5186 
     49 N          26.9433    3.2414   -8.5987 N.am      8 UNK        -0.4240 
     50 CA         28.0226    3.7405   -9.4587 C.3       8 UNK         0.0235 
     51 CB         27.6023    5.0274  -10.2010 C.3       8 UNK        -0.2000 
     52 C          28.6109    2.6716  -10.4027 C.2       8 UNK         0.4941 
     53 O          29.2887    3.0306  -11.3671 O.2       8 UNK        -0.5273 
     54 N          28.3734    1.3844  -10.1075 N.am      9 UNK        -0.4262 
     55 CA         28.9651    0.2529  -10.8222 C.3       9 UNK         0.0264 
     56 CB         28.0709   -0.9893  -10.6647 C.3       9 UNK        -0.1955 
     57 C          30.3890   -0.0131  -10.3137 C.2       9 UNK         0.5031 
     58 O          31.3144   -0.1111  -11.1212 O.2       9 UNK        -0.5390 
     59 N          30.5235   -0.0765   -8.9797 N.am      10 UNK        -0.4204 
     60 CA         31.7594   -0.2601   -8.2079 C.3       10 UNK         0.0237 
     61 CB         32.6308    1.0132   -8.3000 C.3       10 UNK        -0.1985 
     62 C          32.5266   -1.5563   -8.5539 C.2       10 UNK         0.4970 
     63 O          31.9385   -2.5022   -9.0827 O.2       10 UNK        -0.4914 
     64 N          33.8107   -1.5965   -8.1852 N.am      11 UNK        -0.4285 
     65 CA         34.7229   -2.7393   -8.3532 C.3       11 UNK         0.1007 
     66 C          36.2193   -2.3195   -8.4477 C.2       11 UNK         0.5703 
     67 N          36.5388   -1.0520   -8.6885 N.am      11 UNK        -0.7361 
     68 O          37.1128   -3.1545   -8.3262 O.2       11 UNK        -0.4986 
     69 C69        34.4499   -3.8896   -7.3379 C.3       12 UNK        -0.0947 
     70 S70        34.3992   -3.3512   -5.5916 S.3       12 UNK        -0.2240 
     71 C71        32.6067   -3.4448   -5.3004 C.3       12 UNK         0.0194 
     72 H72        25.6935   -6.7487   -1.8113 H         1 UNK         0.0906 
     73 H73        24.9684   -6.0399   -0.3670 H         1 UNK         0.0906 
     74 H74        24.0538   -6.0976   -1.8759 H         1 UNK         0.0906 
     75 H75        25.7543   -4.0042    0.0622 H         1 UNK         0.3140 
     76 H76        26.3995   -1.8826   -0.1041 H         1 UNK         0.1085 
     77 H77        28.4198   -1.4906   -1.6539 H         1 UNK         0.0836 
     78 H78        28.1919   -3.1326   -2.2259 H         1 UNK         0.0836 
     79 H79        30.0537   -4.7894   -1.2272 H         1 UNK         0.0731 
     80 H80        31.1360   -4.1566   -0.0096 H         1 UNK         0.0731 
     81 H81        31.4352   -4.6422   -3.1570 H         1 UNK         0.1312 
     82 H82        32.8029   -0.8297   -4.5575 H         1 UNK         0.1406 
     83 H83        30.9584   -1.1583   -0.7019 H         1 UNK         0.1631 
     84 H84        32.9133    1.0516   -2.9235 H         1 UNK         0.0717 
     85 H85        32.2444    0.8566   -1.3276 H         1 UNK         0.0717 
     86 H86        31.1642    2.9187   -4.7550 H         1 UNK         0.0934 
     87 H87        31.6859    1.2826   -4.9794 H         1 UNK         0.0934 
     88 H88        29.9818    1.7300   -6.5850 H         1 UNK         0.0739 
     89 H89        29.4625   -0.3150   -4.6599 H         1 UNK         0.3093 
     90 H90        28.1680   -2.3605   -7.0730 H         1 UNK         0.0818 
     91 H91        29.8452   -2.5760   -5.3444 H         1 UNK         0.0819 
     92 H92        28.7408   -2.0271   -4.0886 H         1 UNK         0.0819 
     93 H93        28.4756   -3.5687   -4.8933 H         1 UNK         0.0819 
     94 H94        26.2877   -1.7114   -4.8394 H         1 UNK         0.3041 
     95 H95        23.4971   -2.1063   -6.6916 H         1 UNK         0.0784 
     96 H96        23.8579   -4.5073   -7.1906 H         1 UNK         0.0793 
     97 H97        24.4866   -4.7823   -5.5715 H         1 UNK         0.0793 
     98 H98        22.7968   -4.3342   -5.8035 H         1 UNK         0.0793 
     99 H99        24.4273   -2.8829   -3.9676 H         1 UNK         0.3024 
    100 H100       23.5485    0.2260   -2.5889 H         1 UNK         0.1171 
    101 H101       21.8660   -0.9218   -1.1893 H         1 UNK         0.0786 
    102 H102       21.2236   -0.6581   -2.8002 H         1 UNK         0.0786 
    103 H103       21.7797   -2.2600   -2.3366 H         1 UNK         0.0786 
    104 H104       24.0132   -2.1581   -1.2139 H         1 UNK         0.2977 
    105 H105       27.5044    1.4135   -4.0933 H         1 UNK         0.3127 
    106 H106       26.5757    4.1198   -4.1498 H         1 UNK         0.0770 
    107 H107       25.1352    1.5198   -3.4508 H         1 UNK         0.0814 
    108 H108       24.5497    3.1314   -3.0603 H         1 UNK         0.0814 
    109 H109       26.0260    2.5321   -2.3152 H         1 UNK         0.0814 
    110 H110       26.1010    1.4260   -6.3552 H         1 UNK         0.2983 
    111 H111       23.9102    2.7537   -7.8412 H         1 UNK         0.0947 
    112 H112       23.9677    0.6755   -9.1959 H         1 UNK         0.0806 
    113 H113       23.8445    0.2740   -7.4949 H         1 UNK         0.0806 
    114 H114       25.3882    0.1088   -8.3327 H         1 UNK         0.0806 
    115 H115       27.1821    3.1834   -7.6157 H         1 UNK         0.3000 
    116 H116       28.8351    4.0093   -8.7821 H         1 UNK         0.0850 
    117 H117       28.4566    5.4886  -10.6981 H         1 UNK         0.0810 
    118 H118       27.1930    5.7668   -9.5127 H         1 UNK         0.0810 
    119 H119       26.8527    4.8290  -10.9674 H         1 UNK         0.0810 
    120 H120       27.8446    1.1678   -9.2701 H         1 UNK         0.3040 
    121 H121       29.0229    0.4919  -11.8866 H         1 UNK         0.0766 
    122 H122       27.0775   -0.8142  -11.0782 H         1 UNK         0.0812 
    123 H123       27.9471   -1.2822   -9.6216 H         1 UNK         0.0812 
    124 H124       28.4961   -1.8433  -11.1935 H         1 UNK         0.0812 
    125 H125       29.6705   -0.0001   -8.4377 H         1 UNK         0.3205 
    126 H126       31.4492   -0.3739   -7.1689 H         1 UNK         0.0754 
    127 H127       33.4319    1.0115   -7.5605 H         1 UNK         0.0769 
    128 H128       32.0392    1.9102   -8.1159 H         1 UNK         0.0769 
    129 H129       33.0865    1.1186   -9.2856 H         1 UNK         0.0769 
    130 H130       34.2125   -0.7978   -7.7173 H         1 UNK         0.2981 
    131 H131       34.5234   -3.1501   -9.3445 H         1 UNK         0.0541 
    132 H132       35.8363   -0.3579   -8.8820 H         1 UNK         0.3459 
    133 H133       37.5139   -0.8039   -8.7514 H         1 UNK         0.3459 
    134 H134       33.5034   -4.3702   -7.5891 H         1 UNK         0.0612 
    135 H135       35.1950   -4.6811   -7.4316 H         1 UNK         0.0612 
    136 H136       32.3005   -4.4914   -5.3403 H         1 UNK         0.0624 
    137 H137       32.0803   -2.9423   -6.1102 H         1 UNK         0.0624 
@<TRIPOS>BOND
     1    1    2 1    
     2    1   72 1    
     3    1   73 1    
     4    1   74 1    
     5    2    3 2    
     6    2    4 am   BACKBONE|DICT|INTERRES
     7    4    5 1    
     8    4   75 1    
     9    5    6 1    
    10    5   35 1    
    11    5   76 1    
    12    6    7 1    
    13    6   77 1    
    14    6   78 1    
    15    7    8 1    
    16    8    9 1    
    17    8   79 1    
    18    8   80 1    
    19    9   10 ar   
    20    9   14 ar   
    21   10   11 ar   
    22   10   81 1    
    23   11   12 ar   
    24   11   71 1    
    25   12   13 ar   
    26   12   82 1    
    27   13   14 ar   
    28   13   15 1    
    29   14   83 1    
    30   15   16 1    
    31   15   84 1    
    32   15   85 1    
    33   16   17 1    
    34   17   18 1    
    35   17   86 1    
    36   17   87 1    
    37   18   19 1    
    38   18   37 1    
    39   18   88 1    
    40   19   20 am   BACKBONE|DICT|INTERRES
    41   19   89 1    
    42   20   21 2    
    43   20   22 1    
    44   22   23 1    
    45   22   24 1    
    46   22   90 1    
    47   23   91 1    
    48   23   92 1    
    49   23   93 1    
    50   24   25 am   BACKBONE|DICT|INTERRES
    51   24   94 1    
    52   25   26 2    
    53   25   27 1    
    54   27   28 1    
    55   27   29 1    
    56   27   95 1    
    57   28   96 1    
    58   28   97 1    
    59   28   98 1    
    60   29   30 am   BACKBONE|DICT|INTERRES
    61   29   99 1    
    62   30   31 2    
    63   30   32 1    
    64   32   33 1    
    65   32   34 1    
    66   32  100 1    
    67   33  101 1    
    68   33  102 1    
    69   33  103 1    
    70   34   35 am   BACKBONE|DICT|INTERRES
    71   34  104 1    
    72   35   36 2    
    73   37   38 2    
    74   37   39 am   BACKBONE|DICT|INTERRES
    75   39   40 1    
    76   39  105 1    
    77   40   41 1    
    78   40   42 1    
    79   40  106 1    
    80   41  107 1    
    81   41  108 1    
    82   41  109 1    
    83   42   43 2    
    84   42   44 am   BACKBONE|DICT|INTERRES
    85   44   45 1    
    86   44  110 1    
    87   45   46 1    
    88   45   47 1    
    89   45  111 1    
    90   46  112 1    
    91   46  113 1    
    92   46  114 1    
    93   47   48 2    
    94   47   49 am   BACKBONE|DICT|INTERRES
    95   49   50 1    
    96   49  115 1    
    97   50   51 1    
    98   50   52 1    
    99   50  116 1    
   100   51  117 1    
   101   51  118 1    
   102   51  119 1    
   103   52   53 2    
   104   52   54 am   BACKBONE|DICT|INTERRES
   105   54   55 1    
   106   54  120 1    
   107   55   56 1    
   108   55   57 1    
   109   55  121 1    
   110   56  122 1    
   111   56  123 1    
   112   56  124 1    
   113   57   58 2    
   114   57   59 am   BACKBONE|DICT|INTERRES
   115   59   60 1    
   116   59  125 1    
   117   60   61 1    
   118   60   62 1    
   119   60  126 1    
   120   61  127 1    
   121   61  128 1    
   122   61  129 1    
   123   62   63 2    
   124   62   64 am   BACKBONE|DICT|INTERRES
   125   64   65 1    
   126   64  130 1    
   127   65   66 1    
   128   65   69 1    
   129   65  131 1    
   130   66   67 am   BACKBONE|DICT|INTERRES
   131   66   68 2    
   132   67  132 1    
   133   67  133 1    
   134   69   70 1    
   135   69  134 1    
   136   69  135 1    
   137   70   71 1    
   138   71  136 1    
   139   71  137 1    
@<TRIPOS>SUBSTRUCTURE
     1 UNK         1 GROUP             0       ****    0 ROOT    
