@<TRIPOS>MOLECULE
3R137
137   139    1
SMALL
USER_CHARGES


@<TRIPOS>ATOM
      1 CA         30.7510   -4.3971   -5.2446 C.3       0 UNK        -0.2020 
      2 C          30.4980   -5.6832   -4.4605 C.2       0 UNK         0.4855 
      3 O          31.3724   -6.5473   -4.4488 O.2       0 UNK        -0.5197 
      4 N          29.3564   -5.8810   -3.7831 N.am      1 UNK        -0.4892 
      5 CA         28.1618   -5.0298   -3.6535 C.3       1 UNK         0.0835 
      6 C6         28.4338   -3.6529   -2.9768 C.3       12 UNK        -0.0855 
      7 S7         28.9152   -3.8493   -1.2277 S.3       12 UNK        -0.2931 
      8 C8         30.6640   -3.3346   -1.2350 C.3       12 UNK         0.0378 
      9 C9         30.8563   -1.8594   -1.5716 C.ar      12 UNK        -0.0802 
     10 C10        31.7877   -1.4840   -2.5439 C.ar      12 UNK        -0.0944 
     11 C11        31.9864   -0.1367   -2.8570 C.ar      12 UNK        -0.0787 
     12 C12        31.2502    0.8431   -2.1848 C.ar      12 UNK        -0.0862 
     13 C13        30.3305    0.4846   -1.1954 C.ar      12 UNK        -0.0733 
     14 C14        30.1385   -0.8673   -0.8930 C.ar      12 UNK        -0.0832 
     15 C15        29.5768    1.5559   -0.4202 C.3       12 UNK         0.0240 
     16 S16        27.8602    1.7503   -0.9924 S.3       12 UNK        -0.2522 
     17 C17        28.0647    2.6583   -2.5645 C.3       12 UNK        -0.0967 
     18 CA         27.4333    1.9082   -3.7622 C.3       5 UNK         0.0660 
     19 N          26.0120    1.5997   -3.5377 N.am      5 UNK        -0.4015 
     20 C          25.2587    0.8616   -4.3605 C.2       4 UNK         0.4946 
     21 O          25.6906    0.3384   -5.3919 O.2       4 UNK        -0.5353 
     22 CA         23.7668    0.7521   -4.0299 C.3       4 UNK         0.0277 
     23 CB         23.0294    2.0494   -4.4169 C.3       4 UNK        -0.1981 
     24 N          23.2394   -0.3726   -4.7909 N.am      4 UNK        -0.4209 
     25 C          22.0803   -1.0112   -4.5998 C.2       3 UNK         0.4942 
     26 O          21.2451   -0.6826   -3.7563 O.2       3 UNK        -0.5208 
     27 CA         21.8069   -2.2357   -5.4985 C.3       3 UNK         0.0250 
     28 CB         20.9213   -1.8343   -6.6897 C.3       3 UNK        -0.1990 
     29 N          23.0224   -2.8907   -6.0026 N.am      3 UNK        -0.4232 
     30 C          23.9456   -3.4806   -5.2302 C.2       2 UNK         0.4993 
     31 O          23.8371   -3.5891   -4.0046 O.2       2 UNK        -0.5286 
     32 CA         25.2151   -4.0028   -5.9237 C.3       2 UNK         0.0209 
     33 CB         25.7559   -3.0235   -6.9886 C.3       2 UNK        -0.1931 
     34 N          26.2081   -4.2215   -4.8760 N.am      2 UNK        -0.4546 
     35 C          27.3406   -4.9239   -4.9605 C.2       1 UNK         0.5154 
     36 O          27.7127   -5.4893   -5.9917 O.2       1 UNK        -0.5181 
     37 C          27.6533    2.6927   -5.0766 C.2       5 UNK         0.5014 
     38 O          28.6387    2.4556   -5.7753 O.2       5 UNK        -0.5248 
     39 N          26.6976    3.5699   -5.4198 N.am      6 UNK        -0.4434 
     40 CA         26.6503    4.3063   -6.6851 C.3       6 UNK         0.0363 
     41 CB         25.6065    5.4295   -6.5755 C.3       6 UNK        -0.1936 
     42 C          26.3518    3.4165   -7.9069 C.2       6 UNK         0.5081 
     43 O          26.7490    3.7777   -9.0142 O.2       6 UNK        -0.5248 
     44 N          25.6671    2.2813   -7.6986 N.am      7 UNK        -0.4718 
     45 CA         25.4201    1.2736   -8.7337 C.3       7 UNK         0.0273 
     46 CB         24.1522    0.4692   -8.3995 C.3       7 UNK        -0.1935 
     47 C          26.6328    0.3457   -8.9076 C.2       7 UNK         0.5018 
     48 O          26.9176   -0.0614  -10.0341 O.2       7 UNK        -0.5186 
     49 N          27.3335    0.0485   -7.8008 N.am      8 UNK        -0.4240 
     50 CA         28.6041   -0.6813   -7.7878 C.3       8 UNK         0.0235 
     51 CB         28.9916   -1.0422   -6.3441 C.3       8 UNK        -0.2000 
     52 C          29.7232    0.1056   -8.4926 C.2       8 UNK         0.4941 
     53 O          30.4491   -0.4809   -9.2972 O.2       8 UNK        -0.5273 
     54 N          29.7973    1.4186   -8.2195 N.am      9 UNK        -0.4262 
     55 CA         30.6178    2.4393   -8.8827 C.3       9 UNK         0.0264 
     56 CB         30.1094    2.6929  -10.3189 C.3       9 UNK        -0.1955 
     57 C          32.1274    2.1441   -8.8243 C.2       9 UNK         0.5031 
     58 O          32.7988    2.6114   -7.9039 O.2       9 UNK        -0.5390 
     59 N          32.6327    1.3857   -9.8070 N.am      10 UNK        -0.4204 
     60 CA         34.0023    0.8675   -9.8470 C.3       10 UNK         0.0237 
     61 CB         34.3293    0.4115  -11.2783 C.3       10 UNK        -0.1985 
     62 C          34.2296   -0.2823   -8.8478 C.2       10 UNK         0.4970 
     63 O          35.3676   -0.4857   -8.4233 O.2       10 UNK        -0.4914 
     64 N          33.1524   -0.9979   -8.4922 N.am      11 UNK        -0.4285 
     65 CA         33.0975   -2.0561   -7.4693 C.3       11 UNK         0.1007 
     66 C          33.8855   -3.3537   -7.8235 C.2       11 UNK         0.5703 
     67 N          34.2395   -3.5874   -9.0818 N.am      11 UNK        -0.7361 
     68 O          34.1530   -4.1803   -6.9549 O.2       11 UNK        -0.4986 
     69 C69        33.4086   -1.5308   -6.0372 C.3       12 UNK        -0.0947 
     70 S70        32.4049   -0.0761   -5.5825 S.3       12 UNK        -0.2240 
     71 C71        33.0118    0.2636   -3.9055 C.3       12 UNK         0.0194 
     72 H72        31.4320   -4.5967   -6.0713 H         1 UNK         0.0906 
     73 H73        29.8465   -3.9740   -5.6727 H         1 UNK         0.0906 
     74 H74        31.2168   -3.6502   -4.6051 H         1 UNK         0.0906 
     75 H75        29.2645   -6.7679   -3.3078 H         1 UNK         0.3140 
     76 H76        27.5049   -5.5867   -2.9824 H         1 UNK         0.1085 
     77 H77        29.1790   -3.0699   -3.5157 H         1 UNK         0.0836 
     78 H78        27.5395   -3.0283   -2.9670 H         1 UNK         0.0836 
     79 H79        31.2134   -3.9707   -1.9306 H         1 UNK         0.0731 
     80 H80        31.0874   -3.5231   -0.2477 H         1 UNK         0.0731 
     81 H81        32.3669   -2.2387   -3.0565 H         1 UNK         0.1312 
     82 H82        31.4082    1.8868   -2.4193 H         1 UNK         0.1406 
     83 H83        29.4293   -1.1480   -0.1260 H         1 UNK         0.1631 
     84 H84        30.0929    2.5157   -0.4775 H         1 UNK         0.0717 
     85 H85        29.5613    1.2874    0.6371 H         1 UNK         0.0717 
     86 H86        29.1257    2.8355   -2.7483 H         1 UNK         0.0934 
     87 H87        27.6129    3.6449   -2.4438 H         1 UNK         0.0934 
     88 H88        27.9543    0.9542   -3.8705 H         1 UNK         0.0739 
     89 H89        25.6017    1.9814   -2.6973 H         1 UNK         0.3093 
     90 H90        23.6510    0.5510   -2.9630 H         1 UNK         0.0818 
     91 H91        21.9651    1.9852   -4.1901 H         1 UNK         0.0819 
     92 H92        23.4191    2.9070   -3.8677 H         1 UNK         0.0819 
     93 H93        23.1281    2.2672   -5.4813 H         1 UNK         0.0819 
     94 H94        23.8952   -0.7276   -5.4753 H         1 UNK         0.3041 
     95 H95        21.2620   -2.9652   -4.8953 H         1 UNK         0.0784 
     96 H96        19.9953   -1.3694   -6.3480 H         1 UNK         0.0793 
     97 H97        21.4224   -1.1188   -7.3432 H         1 UNK         0.0793 
     98 H98        20.6431   -2.7014   -7.2891 H         1 UNK         0.0793 
     99 H99        23.1727   -2.8572   -7.0005 H         1 UNK         0.3024 
    100 H100       24.9763   -4.9610   -6.3903 H         1 UNK         0.1171 
    101 H101       26.7060   -3.3614   -7.4020 H         1 UNK         0.0786 
    102 H102       25.9135   -2.0313   -6.5683 H         1 UNK         0.0786 
    103 H103       25.0704   -2.9215   -7.8300 H         1 UNK         0.0786 
    104 H104       25.9053   -3.8634   -3.9770 H         1 UNK         0.2977 
    105 H105       25.9269    3.7132   -4.7841 H         1 UNK         0.3127 
    106 H106       27.6294    4.7630   -6.8463 H         1 UNK         0.0770 
    107 H107       24.6046    5.0357   -6.3995 H         1 UNK         0.0814 
    108 H108       25.5682    6.0163   -7.4945 H         1 UNK         0.0814 
    109 H109       25.8461    6.1178   -5.7648 H         1 UNK         0.0814 
    110 H110       25.4215    2.0232   -6.7527 H         1 UNK         0.2983 
    111 H111       25.2506    1.7811   -9.6863 H         1 UNK         0.0947 
    112 H112       23.9006   -0.2085   -9.2163 H         1 UNK         0.0806 
    113 H113       23.2938    1.1231   -8.2453 H         1 UNK         0.0806 
    114 H114       24.2762   -0.1398   -7.5061 H         1 UNK         0.0806 
    115 H115       26.9724    0.3641   -6.9064 H         1 UNK         0.3000 
    116 H116       28.4558   -1.6114   -8.3403 H         1 UNK         0.0850 
    117 H117       29.9027   -1.6395   -6.3292 H         1 UNK         0.0810 
    118 H118       28.2139   -1.6242   -5.8504 H         1 UNK         0.0810 
    119 H119       29.1807   -0.1563   -5.7384 H         1 UNK         0.0810 
    120 H120       29.2274    1.7657   -7.4505 H         1 UNK         0.3040 
    121 H121       30.4626    3.3599   -8.3177 H         1 UNK         0.0766 
    122 H122       30.7235    3.4369  -10.8280 H         1 UNK         0.0812 
    123 H123       29.0886    3.0747  -10.3065 H         1 UNK         0.0812 
    124 H124       30.1093    1.7895  -10.9292 H         1 UNK         0.0812 
    125 H125       31.9843    1.0153  -10.4882 H         1 UNK         0.3205 
    126 H126       34.6850    1.6770   -9.5797 H         1 UNK         0.0754 
    127 H127       35.3530    0.0401  -11.3449 H         1 UNK         0.0769 
    128 H128       34.2386    1.2350  -11.9870 H         1 UNK         0.0769 
    129 H129       33.6687   -0.3911  -11.6090 H         1 UNK         0.0769 
    130 H130       32.2529   -0.7580   -8.9019 H         1 UNK         0.2981 
    131 H131       32.0552   -2.3756   -7.4637 H         1 UNK         0.0541 
    132 H132       34.0183   -2.9231   -9.8057 H         1 UNK         0.3459 
    133 H133       34.7395   -4.4333   -9.3051 H         1 UNK         0.3459 
    134 H134       34.4635   -1.2661   -5.9497 H         1 UNK         0.0612 
    135 H135       33.2250   -2.3107   -5.2975 H         1 UNK         0.0612 
    136 H136       33.2387    1.3281   -3.8313 H         1 UNK         0.0624 
    137 H137       33.9515   -0.2598   -3.7243 H         1 UNK         0.0624 
@<TRIPOS>BOND
     1    1    2 1    
     2    1   72 1    
     3    1   73 1    
     4    1   74 1    
     5    2    3 2    
     6    2    4 am   BACKBONE|DICT|INTERRES
     7    4    5 1    
     8    4   75 1    
     9    5    6 1    
    10    5   35 1    
    11    5   76 1    
    12    6    7 1    
    13    6   77 1    
    14    6   78 1    
    15    7    8 1    
    16    8    9 1    
    17    8   79 1    
    18    8   80 1    
    19    9   10 ar   
    20    9   14 ar   
    21   10   11 ar   
    22   10   81 1    
    23   11   12 ar   
    24   11   71 1    
    25   12   13 ar   
    26   12   82 1    
    27   13   14 ar   
    28   13   15 1    
    29   14   83 1    
    30   15   16 1    
    31   15   84 1    
    32   15   85 1    
    33   16   17 1    
    34   17   18 1    
    35   17   86 1    
    36   17   87 1    
    37   18   19 1    
    38   18   37 1    
    39   18   88 1    
    40   19   20 am   BACKBONE|DICT|INTERRES
    41   19   89 1    
    42   20   21 2    
    43   20   22 1    
    44   22   23 1    
    45   22   24 1    
    46   22   90 1    
    47   23   91 1    
    48   23   92 1    
    49   23   93 1    
    50   24   25 am   BACKBONE|DICT|INTERRES
    51   24   94 1    
    52   25   26 2    
    53   25   27 1    
    54   27   28 1    
    55   27   29 1    
    56   27   95 1    
    57   28   96 1    
    58   28   97 1    
    59   28   98 1    
    60   29   30 am   BACKBONE|DICT|INTERRES
    61   29   99 1    
    62   30   31 2    
    63   30   32 1    
    64   32   33 1    
    65   32   34 1    
    66   32  100 1    
    67   33  101 1    
    68   33  102 1    
    69   33  103 1    
    70   34   35 am   BACKBONE|DICT|INTERRES
    71   34  104 1    
    72   35   36 2    
    73   37   38 2    
    74   37   39 am   BACKBONE|DICT|INTERRES
    75   39   40 1    
    76   39  105 1    
    77   40   41 1    
    78   40   42 1    
    79   40  106 1    
    80   41  107 1    
    81   41  108 1    
    82   41  109 1    
    83   42   43 2    
    84   42   44 am   BACKBONE|DICT|INTERRES
    85   44   45 1    
    86   44  110 1    
    87   45   46 1    
    88   45   47 1    
    89   45  111 1    
    90   46  112 1    
    91   46  113 1    
    92   46  114 1    
    93   47   48 2    
    94   47   49 am   BACKBONE|DICT|INTERRES
    95   49   50 1    
    96   49  115 1    
    97   50   51 1    
    98   50   52 1    
    99   50  116 1    
   100   51  117 1    
   101   51  118 1    
   102   51  119 1    
   103   52   53 2    
   104   52   54 am   BACKBONE|DICT|INTERRES
   105   54   55 1    
   106   54  120 1    
   107   55   56 1    
   108   55   57 1    
   109   55  121 1    
   110   56  122 1    
   111   56  123 1    
   112   56  124 1    
   113   57   58 2    
   114   57   59 am   BACKBONE|DICT|INTERRES
   115   59   60 1    
   116   59  125 1    
   117   60   61 1    
   118   60   62 1    
   119   60  126 1    
   120   61  127 1    
   121   61  128 1    
   122   61  129 1    
   123   62   63 2    
   124   62   64 am   BACKBONE|DICT|INTERRES
   125   64   65 1    
   126   64  130 1    
   127   65   66 1    
   128   65   69 1    
   129   65  131 1    
   130   66   67 am   BACKBONE|DICT|INTERRES
   131   66   68 2    
   132   67  132 1    
   133   67  133 1    
   134   69   70 1    
   135   69  134 1    
   136   69  135 1    
   137   70   71 1    
   138   71  136 1    
   139   71  137 1    
@<TRIPOS>SUBSTRUCTURE
     1 UNK         1 GROUP             0       ****    0 ROOT    
