@<TRIPOS>MOLECULE
3R137
137   139    1
SMALL
USER_CHARGES


@<TRIPOS>ATOM
      1 CA         26.1561   -5.1716   -3.2509 C.3       0 UNK        -0.2020 
      2 C          26.4051   -4.8687   -1.7814 C.2       0 UNK         0.4855 
      3 O          26.5978   -5.7928   -0.9919 O.2       0 UNK        -0.5197 
      4 N          26.3615   -3.5866   -1.3982 N.am      1 UNK        -0.4892 
      5 CA         26.5078   -3.1150   -0.0125 C.3       1 UNK         0.0835 
      6 C6         27.4100   -1.8556    0.0938 C.3       12 UNK        -0.0855 
      7 S7         29.0682   -2.1166   -0.6267 S.3       12 UNK        -0.2931 
      8 C8         28.9614   -1.0693   -2.1110 C.3       12 UNK         0.0378 
      9 C9         29.7809   -1.6389   -3.2566 C.ar      12 UNK        -0.0802 
     10 C10        31.0512   -1.1364   -3.5502 C.ar      12 UNK        -0.0944 
     11 C11        31.7702   -1.6231   -4.6468 C.ar      12 UNK        -0.0787 
     12 C12        31.2094   -2.6231   -5.4499 C.ar      12 UNK        -0.0862 
     13 C13        29.9485   -3.1508   -5.1492 C.ar      12 UNK        -0.0733 
     14 C14        29.2470   -2.6596   -4.0448 C.ar      12 UNK        -0.0832 
     15 C15        29.3592   -4.2754   -5.9912 C.3       12 UNK         0.0240 
     16 S16        28.3844   -3.6674   -7.4068 S.3       12 UNK        -0.2522 
     17 C17        26.8909   -2.9563   -6.6138 C.3       12 UNK        -0.0967 
     18 CA         26.5766   -1.4436   -6.8430 C.3       5 UNK         0.0660 
     19 N          25.8084   -0.8793   -5.7211 N.am      5 UNK        -0.4015 
     20 C          25.2127    0.3221   -5.7010 C.2       4 UNK         0.4946 
     21 O          25.2276    1.1035   -6.6542 O.2       4 UNK        -0.5353 
     22 CA         24.5123    0.7212   -4.3865 C.3       4 UNK         0.0277 
     23 CB         23.8618    2.1156   -4.4665 C.3       4 UNK        -0.1981 
     24 N          23.5002   -0.2519   -3.9653 N.am      4 UNK        -0.4209 
     25 C          23.7517   -1.4224   -3.3685 C.2       3 UNK         0.4942 
     26 O          24.8915   -1.8543   -3.1571 O.2       3 UNK        -0.5208 
     27 CA         22.5328   -2.2687   -2.9839 C.3       3 UNK         0.0250 
     28 CB         22.1947   -3.2611   -4.1084 C.3       3 UNK        -0.1990 
     29 N          22.8582   -3.0099   -1.7710 N.am      3 UNK        -0.4232 
     30 C          22.1372   -3.0501   -0.6427 C.2       2 UNK         0.4993 
     31 O          21.0197   -2.5468   -0.5225 O.2       2 UNK        -0.5286 
     32 CA         22.7761   -3.7681    0.5652 C.3       2 UNK         0.0209 
     33 CB         22.1647   -5.1671    0.7463 C.3       2 UNK        -0.1931 
     34 N          24.2320   -3.8939    0.4338 N.am      2 UNK        -0.4546 
     35 C          25.0947   -2.8741    0.5561 C.2       1 UNK         0.5154 
     36 O          24.7763   -1.7704    1.0025 O.2       1 UNK        -0.5181 
     37 C          27.7844   -0.5578   -7.2352 C.2       5 UNK         0.5014 
     38 O          28.1400   -0.5156   -8.4143 O.2       5 UNK        -0.5248 
     39 N          28.3327    0.1985   -6.2705 N.am      6 UNK        -0.4434 
     40 CA         29.3985    1.1905   -6.4429 C.3       6 UNK         0.0363 
     41 CB         29.6238    1.9283   -5.1136 C.3       6 UNK        -0.1936 
     42 C          29.1539    2.2145   -7.5656 C.2       6 UNK         0.5081 
     43 O          30.1115    2.6248   -8.2205 O.2       6 UNK        -0.5248 
     44 N          27.8838    2.5780   -7.7996 N.am      7 UNK        -0.4718 
     45 CA         27.4655    3.4817   -8.8751 C.3       7 UNK         0.0273 
     46 CB         25.9851    3.8459   -8.6803 C.3       7 UNK        -0.1935 
     47 C          27.7000    2.9138  -10.2881 C.2       7 UNK         0.5018 
     48 O          27.8709    3.6965  -11.2236 O.2       7 UNK        -0.5186 
     49 N          27.7105    1.5804  -10.4179 N.am      8 UNK        -0.4240 
     50 CA         28.0209    0.8661  -11.6555 C.3       8 UNK         0.0235 
     51 CB         27.0558   -0.3208  -11.8141 C.3       8 UNK        -0.2000 
     52 C          29.4774    0.3795  -11.6604 C.2       8 UNK         0.4941 
     53 O          30.1404    0.4771  -12.6935 O.2       8 UNK        -0.5273 
     54 N          29.9462   -0.1447  -10.5186 N.am      9 UNK        -0.4262 
     55 CA         31.2751   -0.7364  -10.3552 C.3       9 UNK         0.0264 
     56 CB         31.3076   -1.5647   -9.0601 C.3       9 UNK        -0.1955 
     57 C          32.4292    0.2782  -10.3629 C.2       9 UNK         0.5031 
     58 O          33.5505   -0.1131  -10.6903 O.2       9 UNK        -0.5390 
     59 N          32.1694    1.5317   -9.9582 N.am      10 UNK        -0.4204 
     60 CA         33.1028    2.6622   -9.8055 C.3       10 UNK         0.0237 
     61 CB         33.7951    3.0181  -11.1360 C.3       10 UNK        -0.1985 
     62 C          34.1276    2.5005   -8.6642 C.2       10 UNK         0.4970 
     63 O          34.4607    3.4945   -8.0182 O.2       10 UNK        -0.4914 
     64 N          34.5803    1.2649   -8.4215 N.am      11 UNK        -0.4285 
     65 CA         35.4206    0.8204   -7.2967 C.3       11 UNK         0.1007 
     66 C          36.9022    1.3002   -7.3563 C.2       11 UNK         0.5703 
     67 N          37.3853    1.8199   -8.4787 N.am      11 UNK        -0.7361 
     68 O          37.6398    1.1697   -6.3818 O.2       11 UNK        -0.4986 
     69 C69        34.7677    1.0649   -5.9030 C.3       12 UNK        -0.0947 
     70 S70        33.0233    0.5339   -5.8064 S.3       12 UNK        -0.2240 
     71 C71        33.1516   -1.0632   -4.9536 C.3       12 UNK         0.0194 
     72 H72        25.3887   -5.9390   -3.3500 H         1 UNK         0.0906 
     73 H73        27.0679   -5.5431   -3.7162 H         1 UNK         0.0906 
     74 H74        25.8197   -4.2930   -3.7983 H         1 UNK         0.0906 
     75 H75        26.1077   -2.8694   -2.0738 H         1 UNK         0.3140 
     76 H76        26.9656   -3.8928    0.6030 H         1 UNK         0.1085 
     77 H77        26.9324   -0.9939   -0.3767 H         1 UNK         0.0836 
     78 H78        27.5454   -1.5823    1.1420 H         1 UNK         0.0836 
     79 H79        27.9239   -0.9807   -2.4375 H         1 UNK         0.0731 
     80 H80        29.2909   -0.0590   -1.8629 H         1 UNK         0.0731 
     81 H81        31.4757   -0.3530   -2.9372 H         1 UNK         0.1312 
     82 H82        31.7587   -2.9999   -6.3018 H         1 UNK         0.1406 
     83 H83        28.2825   -3.0700   -3.7864 H         1 UNK         0.1631 
     84 H84        30.1655   -4.9031   -6.3734 H         1 UNK         0.0717 
     85 H85        28.7397   -4.9295   -5.3769 H         1 UNK         0.0717 
     86 H86        26.0367   -3.5455   -6.9513 H         1 UNK         0.0934 
     87 H87        26.9513   -3.1625   -5.5488 H         1 UNK         0.0934 
     88 H88        25.9140   -1.3959   -7.7101 H         1 UNK         0.0739 
     89 H89        25.7126   -1.4487   -4.8861 H         1 UNK         0.3093 
     90 H90        25.2874    0.7665   -3.6180 H         1 UNK         0.0818 
     91 H91        23.4243    2.4058   -3.5111 H         1 UNK         0.0819 
     92 H92        24.5984    2.8774   -4.7261 H         1 UNK         0.0819 
     93 H93        23.0759    2.1524   -5.2220 H         1 UNK         0.0819 
     94 H94        22.5390    0.0008   -4.1473 H         1 UNK         0.3041 
     95 H95        21.6809   -1.6075   -2.8109 H         1 UNK         0.0784 
     96 H96        21.9447   -2.7379   -5.0323 H         1 UNK         0.0793 
     97 H97        23.0306   -3.9278   -4.3256 H         1 UNK         0.0793 
     98 H98        21.3362   -3.8785   -3.8436 H         1 UNK         0.0793 
     99 H99        23.7908   -3.3955   -1.7509 H         1 UNK         0.3024 
    100 H100       22.5539   -3.1734    1.4545 H         1 UNK         0.1171 
    101 H101       22.5660   -5.6642    1.6297 H         1 UNK         0.0786 
    102 H102       21.0829   -5.1063    0.8743 H         1 UNK         0.0786 
    103 H103       22.3553   -5.8072   -0.1161 H         1 UNK         0.0786 
    104 H104       24.5858   -4.7734    0.0805 H         1 UNK         0.2977 
    105 H105       27.9760    0.0902   -5.3340 H         1 UNK         0.3127 
    106 H106       30.3036    0.6397   -6.6949 H         1 UNK         0.0770 
    107 H107       28.7402    2.4895   -4.8072 H         1 UNK         0.0814 
    108 H108       30.4484    2.6375   -5.1995 H         1 UNK         0.0814 
    109 H109       29.8792    1.2405   -4.3100 H         1 UNK         0.0814 
    110 H110       27.1452    2.1595   -7.2459 H         1 UNK         0.2983 
    111 H111       28.0579    4.3955   -8.7914 H         1 UNK         0.0947 
    112 H112       25.6525    4.5516   -9.4428 H         1 UNK         0.0806 
    113 H113       25.8145    4.3130   -7.7102 H         1 UNK         0.0806 
    114 H114       25.3423    2.9670   -8.7460 H         1 UNK         0.0806 
    115 H115       27.6087    1.0119   -9.5833 H         1 UNK         0.3000 
    116 H116       27.8856    1.5260  -12.5153 H         1 UNK         0.0850 
    117 H117       26.0205    0.0166  -11.8643 H         1 UNK         0.0810 
    118 H118       27.1373   -1.0262  -10.9859 H         1 UNK         0.0810 
    119 H119       27.2624   -0.8709  -12.7331 H         1 UNK         0.0810 
    120 H120       29.3109   -0.2341   -9.7261 H         1 UNK         0.3040 
    121 H121       31.4402   -1.4170  -11.1931 H         1 UNK         0.0766 
    122 H122       30.5548   -2.3524   -9.0761 H         1 UNK         0.0812 
    123 H123       31.1262   -0.9486   -8.1798 H         1 UNK         0.0812 
    124 H124       32.2768   -2.0466   -8.9253 H         1 UNK         0.0812 
    125 H125       31.2351    1.7279   -9.6087 H         1 UNK         0.3205 
    126 H126       32.4751    3.5112   -9.5301 H         1 UNK         0.0754 
    127 H127       34.4739    2.2328  -11.4695 H         1 UNK         0.0769 
    128 H128       34.3836    3.9309  -11.0342 H         1 UNK         0.0769 
    129 H129       33.0655    3.1892  -11.9276 H         1 UNK         0.0769 
    130 H130       34.2978    0.5414   -9.0760 H         1 UNK         0.2981 
    131 H131       35.4869   -0.2608   -7.4206 H         1 UNK         0.0541 
    132 H132       38.3477    2.1170   -8.5125 H         1 UNK         0.3459 
    133 H133       36.7934    1.9235   -9.2870 H         1 UNK         0.3459 
    134 H134       34.8011    2.1266   -5.6536 H         1 UNK         0.0612 
    135 H135       35.3345    0.5570   -5.1210 H         1 UNK         0.0612 
    136 H136       33.7099   -0.9376   -4.0248 H         1 UNK         0.0624 
    137 H137       33.7222   -1.7574   -5.5723 H         1 UNK         0.0624 
@<TRIPOS>BOND
     1    1    2 1    
     2    1   72 1    
     3    1   73 1    
     4    1   74 1    
     5    2    3 2    
     6    2    4 am   BACKBONE|DICT|INTERRES
     7    4    5 1    
     8    4   75 1    
     9    5    6 1    
    10    5   35 1    
    11    5   76 1    
    12    6    7 1    
    13    6   77 1    
    14    6   78 1    
    15    7    8 1    
    16    8    9 1    
    17    8   79 1    
    18    8   80 1    
    19    9   10 ar   
    20    9   14 ar   
    21   10   11 ar   
    22   10   81 1    
    23   11   12 ar   
    24   11   71 1    
    25   12   13 ar   
    26   12   82 1    
    27   13   14 ar   
    28   13   15 1    
    29   14   83 1    
    30   15   16 1    
    31   15   84 1    
    32   15   85 1    
    33   16   17 1    
    34   17   18 1    
    35   17   86 1    
    36   17   87 1    
    37   18   19 1    
    38   18   37 1    
    39   18   88 1    
    40   19   20 am   BACKBONE|DICT|INTERRES
    41   19   89 1    
    42   20   21 2    
    43   20   22 1    
    44   22   23 1    
    45   22   24 1    
    46   22   90 1    
    47   23   91 1    
    48   23   92 1    
    49   23   93 1    
    50   24   25 am   BACKBONE|DICT|INTERRES
    51   24   94 1    
    52   25   26 2    
    53   25   27 1    
    54   27   28 1    
    55   27   29 1    
    56   27   95 1    
    57   28   96 1    
    58   28   97 1    
    59   28   98 1    
    60   29   30 am   BACKBONE|DICT|INTERRES
    61   29   99 1    
    62   30   31 2    
    63   30   32 1    
    64   32   33 1    
    65   32   34 1    
    66   32  100 1    
    67   33  101 1    
    68   33  102 1    
    69   33  103 1    
    70   34   35 am   BACKBONE|DICT|INTERRES
    71   34  104 1    
    72   35   36 2    
    73   37   38 2    
    74   37   39 am   BACKBONE|DICT|INTERRES
    75   39   40 1    
    76   39  105 1    
    77   40   41 1    
    78   40   42 1    
    79   40  106 1    
    80   41  107 1    
    81   41  108 1    
    82   41  109 1    
    83   42   43 2    
    84   42   44 am   BACKBONE|DICT|INTERRES
    85   44   45 1    
    86   44  110 1    
    87   45   46 1    
    88   45   47 1    
    89   45  111 1    
    90   46  112 1    
    91   46  113 1    
    92   46  114 1    
    93   47   48 2    
    94   47   49 am   BACKBONE|DICT|INTERRES
    95   49   50 1    
    96   49  115 1    
    97   50   51 1    
    98   50   52 1    
    99   50  116 1    
   100   51  117 1    
   101   51  118 1    
   102   51  119 1    
   103   52   53 2    
   104   52   54 am   BACKBONE|DICT|INTERRES
   105   54   55 1    
   106   54  120 1    
   107   55   56 1    
   108   55   57 1    
   109   55  121 1    
   110   56  122 1    
   111   56  123 1    
   112   56  124 1    
   113   57   58 2    
   114   57   59 am   BACKBONE|DICT|INTERRES
   115   59   60 1    
   116   59  125 1    
   117   60   61 1    
   118   60   62 1    
   119   60  126 1    
   120   61  127 1    
   121   61  128 1    
   122   61  129 1    
   123   62   63 2    
   124   62   64 am   BACKBONE|DICT|INTERRES
   125   64   65 1    
   126   64  130 1    
   127   65   66 1    
   128   65   69 1    
   129   65  131 1    
   130   66   67 am   BACKBONE|DICT|INTERRES
   131   66   68 2    
   132   67  132 1    
   133   67  133 1    
   134   69   70 1    
   135   69  134 1    
   136   69  135 1    
   137   70   71 1    
   138   71  136 1    
   139   71  137 1    
@<TRIPOS>SUBSTRUCTURE
     1 UNK         1 GROUP             0       ****    0 ROOT    
