@<TRIPOS>MOLECULE
3R137
137   139    1
SMALL
USER_CHARGES


@<TRIPOS>ATOM
      1 CA         30.2355   -0.3937    2.1000 C.3       0 UNK        -0.2020 
      2 C          29.3168   -1.4155    1.4459 C.2       0 UNK         0.4855 
      3 O          28.5490   -2.0748    2.1477 O.2       0 UNK        -0.5197 
      4 N          29.4017   -1.5426    0.1134 N.am      1 UNK        -0.4892 
      5 CA         28.6034   -2.4277   -0.7519 C.3       1 UNK         0.0835 
      6 C6         28.7297   -3.9385   -0.3860 C.3       12 UNK        -0.0855 
      7 S7         30.4076   -4.6784   -0.4429 S.3       12 UNK        -0.2931 
      8 C8         31.3850   -3.6777   -1.6285 C.3       12 UNK         0.0378 
      9 C9         30.9320   -3.6969   -3.0928 C.ar      12 UNK        -0.0802 
     10 C10        31.6301   -2.9008   -4.0067 C.ar      12 UNK        -0.0944 
     11 C11        31.2788   -2.8708   -5.3643 C.ar      12 UNK        -0.0787 
     12 C12        30.1933   -3.6409   -5.7952 C.ar      12 UNK        -0.0862 
     13 C13        29.4811   -4.4410   -4.8979 C.ar      12 UNK        -0.0733 
     14 C14        29.8649   -4.4761   -3.5561 C.ar      12 UNK        -0.0832 
     15 C15        28.3107   -5.2921   -5.3680 C.3       12 UNK         0.0240 
     16 S16        26.7691   -4.3256   -5.4719 S.3       12 UNK        -0.2522 
     17 C17        26.6827   -3.9556   -7.2577 C.3       12 UNK        -0.0967 
     18 CA         26.4322   -2.4732   -7.6206 C.3       5 UNK         0.0660 
     19 N          25.1601   -1.9453   -7.1226 N.am      5 UNK        -0.4015 
     20 C          24.5377   -0.8942   -7.6772 C.2       4 UNK         0.4946 
     21 O          24.9847   -0.2625   -8.6365 O.2       4 UNK        -0.5353 
     22 CA         23.2054   -0.4593   -7.0466 C.3       4 UNK         0.0277 
     23 CB         22.1203   -1.5329   -7.2361 C.3       4 UNK        -0.1981 
     24 N          23.3346   -0.1262   -5.6279 N.am      4 UNK        -0.4209 
     25 C          24.0858    0.8745   -5.1471 C.2       3 UNK         0.4942 
     26 O          24.7435    1.6412   -5.8483 O.2       3 UNK        -0.5208 
     27 CA         24.1352    1.0392   -3.6195 C.3       3 UNK         0.0250 
     28 CB         22.9830    1.9372   -3.1407 C.3       3 UNK        -0.1990 
     29 N          24.1304   -0.2127   -2.8526 N.am      3 UNK        -0.4232 
     30 C          24.9824   -1.2329   -3.0231 C.2       2 UNK         0.4993 
     31 O          25.7747   -1.3267   -3.9632 O.2       2 UNK        -0.5286 
     32 CA         24.9460   -2.3448   -1.9656 C.3       2 UNK         0.0209 
     33 CB         24.1901   -3.5748   -2.4927 C.3       2 UNK        -0.1931 
     34 N          26.3122   -2.7256   -1.6030 N.am      2 UNK        -0.4546 
     35 C          27.1308   -1.9624   -0.8632 C.2       1 UNK         0.5154 
     36 O          26.7618   -0.9126   -0.3278 O.2       1 UNK        -0.5181 
     37 C          27.6179   -1.5534   -7.2837 C.2       5 UNK         0.5014 
     38 O          28.5214   -1.4318   -8.1120 O.2       5 UNK        -0.5248 
     39 N          27.5798   -0.8826   -6.1214 N.am      6 UNK        -0.4434 
     40 CA         28.5708    0.1187   -5.7254 C.3       6 UNK         0.0363 
     41 CB         28.3276    0.5734   -4.2796 C.3       6 UNK        -0.1936 
     42 C          28.6153    1.3219   -6.6799 C.2       6 UNK         0.5081 
     43 O          29.7065    1.8137   -6.9642 O.2       6 UNK        -0.5248 
     44 N          27.4534    1.7541   -7.1892 N.am      7 UNK        -0.4718 
     45 CA         27.3604    2.7606   -8.2456 C.3       7 UNK         0.0273 
     46 CB         25.9291    3.3145   -8.3282 C.3       7 UNK        -0.1935 
     47 C          27.8136    2.2046   -9.6037 C.2       7 UNK         0.5018 
     48 O          28.6664    2.8183  -10.2453 O.2       7 UNK        -0.5186 
     49 N          27.2507    1.0562  -10.0127 N.am      8 UNK        -0.4240 
     50 CA         27.4809    0.4393  -11.3248 C.3       8 UNK         0.0235 
     51 CB         26.5547   -0.7730  -11.5062 C.3       8 UNK        -0.2000 
     52 C          28.9425    0.0435  -11.5923 C.2       8 UNK         0.4941 
     53 O          29.4368    0.2920  -12.6927 O.2       8 UNK        -0.5273 
     54 N          29.6100   -0.5438  -10.5900 N.am      9 UNK        -0.4262 
     55 CA         31.0213   -0.9367  -10.6569 C.3       9 UNK         0.0264 
     56 CB         31.2010   -2.2939   -9.9563 C.3       9 UNK        -0.1955 
     57 C          31.9771    0.1427  -10.1085 C.2       9 UNK         0.5031 
     58 O          33.1833   -0.1027  -10.0626 O.2       9 UNK        -0.5390 
     59 N          31.4407    1.3174   -9.7410 N.am      10 UNK        -0.4204 
     60 CA         32.1479    2.5330   -9.3198 C.3       10 UNK         0.0237 
     61 CB         32.9188    3.1462  -10.5089 C.3       10 UNK        -0.1985 
     62 C          33.0213    2.3590   -8.0602 C.2       10 UNK         0.4970 
     63 O          34.1365    2.8827   -8.0080 O.2       10 UNK        -0.4914 
     64 N          32.4821    1.6609   -7.0553 N.am      11 UNK        -0.4285 
     65 CA         33.0288    1.6210   -5.6896 C.3       11 UNK         0.1007 
     66 C          32.5302    2.8087   -4.8197 C.2       11 UNK         0.5703 
     67 N          31.3927    3.4217   -5.1296 N.am      11 UNK        -0.7361 
     68 O          33.1924    3.1847   -3.8556 O.2       11 UNK        -0.4986 
     69 C69        32.7452    0.2751   -4.9760 C.3       12 UNK        -0.0947 
     70 S70        33.5107   -1.1415   -5.8298 S.3       12 UNK        -0.2240 
     71 C71        32.0390   -2.0499   -6.4118 C.3       12 UNK         0.0194 
     72 H72        30.8762   -0.8816    2.8340 H         1 UNK         0.0906 
     73 H73        30.8747    0.1079    1.3736 H         1 UNK         0.0906 
     74 H74        29.6458    0.3654    2.6135 H         1 UNK         0.0906 
     75 H75        30.0284   -0.9255   -0.3832 H         1 UNK         0.3140 
     76 H76        28.9945   -2.2862   -1.7591 H         1 UNK         0.1085 
     77 H77        28.3250   -4.1213    0.6102 H         1 UNK         0.0836 
     78 H78        28.1126   -4.5480   -1.0460 H         1 UNK         0.0836 
     79 H79        31.4400   -2.6481   -1.2762 H         1 UNK         0.0731 
     80 H80        32.4089   -4.0524   -1.5952 H         1 UNK         0.0731 
     81 H81        32.4614   -2.3143   -3.6441 H         1 UNK         0.1312 
     82 H82        29.9055   -3.6231   -6.8375 H         1 UNK         0.1406 
     83 H83        29.3242   -5.1237   -2.8836 H         1 UNK         0.1631 
     84 H84        28.5449   -5.7627   -6.3235 H         1 UNK         0.0717 
     85 H85        28.1466   -6.1160   -4.6718 H         1 UNK         0.0717 
     86 H86        27.5910   -4.2980   -7.7562 H         1 UNK         0.0934 
     87 H87        25.8822   -4.5668   -7.6775 H         1 UNK         0.0934 
     88 H88        26.3591   -2.4599   -8.7094 H         1 UNK         0.0739 
     89 H89        24.7816   -2.3766   -6.2916 H         1 UNK         0.3093 
     90 H90        22.8791    0.4433   -7.5680 H         1 UNK         0.0818 
     91 H91        21.1476   -1.1748   -6.8985 H         1 UNK         0.0819 
     92 H92        22.0162   -1.7997   -8.2888 H         1 UNK         0.0819 
     93 H93        22.3475   -2.4484   -6.6886 H         1 UNK         0.0819 
     94 H94        22.8386   -0.7082   -4.9692 H         1 UNK         0.3041 
     95 H95        25.0735    1.5461   -3.3861 H         1 UNK         0.0784 
     96 H96        22.9750    2.8844   -3.6825 H         1 UNK         0.0793 
     97 H97        22.0116    1.4656   -3.2947 H         1 UNK         0.0793 
     98 H98        23.0776    2.1753   -2.0810 H         1 UNK         0.0793 
     99 H99        23.5034   -0.2405   -2.0612 H         1 UNK         0.3024 
    100 H100       24.4378   -1.9786   -1.0704 H         1 UNK         0.1171 
    101 H101       24.1573   -4.3698   -1.7474 H         1 UNK         0.0786 
    102 H102       23.1586   -3.3221   -2.7412 H         1 UNK         0.0786 
    103 H103       24.6513   -3.9795   -3.3938 H         1 UNK         0.0786 
    104 H104       26.6865   -3.5332   -2.0786 H         1 UNK         0.2977 
    105 H105       26.8282   -1.0699   -5.4582 H         1 UNK         0.3127 
    106 H106       29.5460   -0.3661   -5.7631 H         1 UNK         0.0770 
    107 H107       27.3538    1.0502   -4.1680 H         1 UNK         0.0814 
    108 H108       29.0844    1.2931   -3.9643 H         1 UNK         0.0814 
    109 H109       28.3707   -0.2684   -3.5884 H         1 UNK         0.0814 
    110 H110       26.5827    1.3434   -6.8689 H         1 UNK         0.2983 
    111 H111       28.0243    3.5893   -7.9889 H         1 UNK         0.0947 
    112 H112       25.8421    4.0589   -9.1207 H         1 UNK         0.0806 
    113 H113       25.6406    3.7993   -7.3955 H         1 UNK         0.0806 
    114 H114       25.1999    2.5298   -8.5334 H         1 UNK         0.0806 
    115 H115       26.5462    0.6197   -9.4226 H         1 UNK         0.3000 
    116 H116       27.2061    1.1831  -12.0759 H         1 UNK         0.0850 
    117 H117       26.6638   -1.2013  -12.5035 H         1 UNK         0.0810 
    118 H118       25.5071   -0.4962  -11.3857 H         1 UNK         0.0810 
    119 H119       26.7795   -1.5610  -10.7884 H         1 UNK         0.0810 
    120 H120       29.1282   -0.7407   -9.7126 H         1 UNK         0.3040 
    121 H121       31.3087   -1.0818  -11.7004 H         1 UNK         0.0766 
    122 H122       30.6595   -3.0791  -10.4836 H         1 UNK         0.0812 
    123 H123       30.8289   -2.2719   -8.9355 H         1 UNK         0.0812 
    124 H124       32.2494   -2.5930   -9.9220 H         1 UNK         0.0812 
    125 H125       30.4361    1.4173   -9.8206 H         1 UNK         0.3205 
    126 H126       31.3683    3.2433   -9.0397 H         1 UNK         0.0754 
    127 H127       33.3391    4.1177  -10.2456 H         1 UNK         0.0769 
    128 H128       32.2643    3.3008  -11.3668 H         1 UNK         0.0769 
    129 H129       33.7447    2.5089  -10.8269 H         1 UNK         0.0769 
    130 H130       31.5145    1.3684   -7.1528 H         1 UNK         0.2981 
    131 H131       34.1140    1.7250   -5.7483 H         1 UNK         0.0541 
    132 H132       30.8169    3.0744   -5.8879 H         1 UNK         0.3459 
    133 H133       31.0792    4.1969   -4.5681 H         1 UNK         0.3459 
    134 H134       33.1482    0.2905   -3.9617 H         1 UNK         0.0612 
    135 H135       31.6718    0.1137   -4.8701 H         1 UNK         0.0612 
    136 H136       32.3756   -2.7315   -7.1935 H         1 UNK         0.0624 
    137 H137       31.3585   -1.3422   -6.8861 H         1 UNK         0.0624 
@<TRIPOS>BOND
     1    1    2 1    
     2    1   72 1    
     3    1   73 1    
     4    1   74 1    
     5    2    3 2    
     6    2    4 am   BACKBONE|DICT|INTERRES
     7    4    5 1    
     8    4   75 1    
     9    5    6 1    
    10    5   35 1    
    11    5   76 1    
    12    6    7 1    
    13    6   77 1    
    14    6   78 1    
    15    7    8 1    
    16    8    9 1    
    17    8   79 1    
    18    8   80 1    
    19    9   10 ar   
    20    9   14 ar   
    21   10   11 ar   
    22   10   81 1    
    23   11   12 ar   
    24   11   71 1    
    25   12   13 ar   
    26   12   82 1    
    27   13   14 ar   
    28   13   15 1    
    29   14   83 1    
    30   15   16 1    
    31   15   84 1    
    32   15   85 1    
    33   16   17 1    
    34   17   18 1    
    35   17   86 1    
    36   17   87 1    
    37   18   19 1    
    38   18   37 1    
    39   18   88 1    
    40   19   20 am   BACKBONE|DICT|INTERRES
    41   19   89 1    
    42   20   21 2    
    43   20   22 1    
    44   22   23 1    
    45   22   24 1    
    46   22   90 1    
    47   23   91 1    
    48   23   92 1    
    49   23   93 1    
    50   24   25 am   BACKBONE|DICT|INTERRES
    51   24   94 1    
    52   25   26 2    
    53   25   27 1    
    54   27   28 1    
    55   27   29 1    
    56   27   95 1    
    57   28   96 1    
    58   28   97 1    
    59   28   98 1    
    60   29   30 am   BACKBONE|DICT|INTERRES
    61   29   99 1    
    62   30   31 2    
    63   30   32 1    
    64   32   33 1    
    65   32   34 1    
    66   32  100 1    
    67   33  101 1    
    68   33  102 1    
    69   33  103 1    
    70   34   35 am   BACKBONE|DICT|INTERRES
    71   34  104 1    
    72   35   36 2    
    73   37   38 2    
    74   37   39 am   BACKBONE|DICT|INTERRES
    75   39   40 1    
    76   39  105 1    
    77   40   41 1    
    78   40   42 1    
    79   40  106 1    
    80   41  107 1    
    81   41  108 1    
    82   41  109 1    
    83   42   43 2    
    84   42   44 am   BACKBONE|DICT|INTERRES
    85   44   45 1    
    86   44  110 1    
    87   45   46 1    
    88   45   47 1    
    89   45  111 1    
    90   46  112 1    
    91   46  113 1    
    92   46  114 1    
    93   47   48 2    
    94   47   49 am   BACKBONE|DICT|INTERRES
    95   49   50 1    
    96   49  115 1    
    97   50   51 1    
    98   50   52 1    
    99   50  116 1    
   100   51  117 1    
   101   51  118 1    
   102   51  119 1    
   103   52   53 2    
   104   52   54 am   BACKBONE|DICT|INTERRES
   105   54   55 1    
   106   54  120 1    
   107   55   56 1    
   108   55   57 1    
   109   55  121 1    
   110   56  122 1    
   111   56  123 1    
   112   56  124 1    
   113   57   58 2    
   114   57   59 am   BACKBONE|DICT|INTERRES
   115   59   60 1    
   116   59  125 1    
   117   60   61 1    
   118   60   62 1    
   119   60  126 1    
   120   61  127 1    
   121   61  128 1    
   122   61  129 1    
   123   62   63 2    
   124   62   64 am   BACKBONE|DICT|INTERRES
   125   64   65 1    
   126   64  130 1    
   127   65   66 1    
   128   65   69 1    
   129   65  131 1    
   130   66   67 am   BACKBONE|DICT|INTERRES
   131   66   68 2    
   132   67  132 1    
   133   67  133 1    
   134   69   70 1    
   135   69  134 1    
   136   69  135 1    
   137   70   71 1    
   138   71  136 1    
   139   71  137 1    
@<TRIPOS>SUBSTRUCTURE
     1 UNK         1 GROUP             0       ****    0 ROOT    
