@<TRIPOS>MOLECULE
3R137
137   139    1
SMALL
USER_CHARGES


@<TRIPOS>ATOM
      1 CA         26.3086   -8.0048   -3.6922 C.3       0 UNK        -0.2020 
      2 C          26.8062   -6.5699   -3.5933 C.2       0 UNK         0.4855 
      3 O          27.3060   -6.0378   -4.5844 O.2       0 UNK        -0.5197 
      4 N          26.6723   -5.9646   -2.4032 N.am      1 UNK        -0.4892 
      5 CA         27.0278   -4.5831   -2.0354 C.3       1 UNK         0.0835 
      6 C6         28.5055   -4.2070   -2.3267 C.3       12 UNK        -0.0855 
      7 S7         29.6984   -5.2250   -1.3909 S.3       12 UNK        -0.2931 
      8 C8         30.4526   -4.0065   -0.2607 C.3       12 UNK         0.0378 
      9 C9         31.1097   -2.8465   -1.0006 C.ar      12 UNK        -0.0802 
     10 C10        32.1667   -3.0787   -1.8866 C.ar      12 UNK        -0.0944 
     11 C11        32.7462   -2.0200   -2.5918 C.ar      12 UNK        -0.0787 
     12 C12        32.2850   -0.7178   -2.3828 C.ar      12 UNK        -0.0862 
     13 C13        31.2325   -0.4712   -1.4972 C.ar      12 UNK        -0.0733 
     14 C14        30.6497   -1.5392   -0.8082 C.ar      12 UNK        -0.0832 
     15 C15        30.7238    0.9461   -1.2784 C.3       12 UNK         0.0240 
     16 S16        29.3365    1.3440   -2.3872 S.3       12 UNK        -0.2522 
     17 C17        30.2202    1.8206   -3.9154 C.3       12 UNK        -0.0967 
     18 CA         29.3580    1.7920   -5.2008 C.3       5 UNK         0.0660 
     19 N          28.7695    0.4771   -5.4500 N.am      5 UNK        -0.4015 
     20 C          29.0550   -0.3063   -6.4990 C.2       4 UNK         0.4946 
     21 O          29.8723   -0.0311   -7.3795 O.2       4 UNK        -0.5353 
     22 CA         28.2594   -1.6161   -6.6198 C.3       4 UNK         0.0277 
     23 CB         28.9048   -2.6849   -5.7267 C.3       4 UNK        -0.1981 
     24 N          26.8416   -1.4886   -6.2706 N.am      4 UNK        -0.4209 
     25 C          25.9997   -0.5331   -6.6934 C.2       3 UNK         0.4942 
     26 O          26.2922    0.3287   -7.5239 O.2       3 UNK        -0.5208 
     27 CA         24.6189   -0.4744   -6.0192 C.3       3 UNK         0.0250 
     28 CB         23.5850   -1.2292   -6.8682 C.3       3 UNK        -0.1990 
     29 N          24.5743   -0.9735   -4.6367 N.am      3 UNK        -0.4232 
     30 C          25.3864   -0.6298   -3.6238 C.2       2 UNK         0.4993 
     31 O          26.3523    0.1262   -3.7439 O.2       2 UNK        -0.5286 
     32 CA         25.0893   -1.2384   -2.2431 C.3       2 UNK         0.0209 
     33 CB         23.6006   -1.5955   -2.0277 C.3       2 UNK        -0.1931 
     34 N          25.9559   -2.3856   -1.9425 N.am      2 UNK        -0.4546 
     35 C          26.0511   -3.5383   -2.6246 C.2       1 UNK         0.5154 
     36 O          25.4041   -3.7780   -3.6469 O.2       1 UNK        -0.5181 
     37 C          28.2943    2.9060   -5.2185 C.2       5 UNK         0.5014 
     38 O          28.5981    3.9974   -5.7003 O.2       5 UNK        -0.5248 
     39 N          27.0712    2.6340   -4.7343 N.am      6 UNK        -0.4434 
     40 CA         25.9880    3.6197   -4.6280 C.3       6 UNK         0.0363 
     41 CB         24.8557    3.0615   -3.7514 C.3       6 UNK        -0.1936 
     42 C          25.4398    4.0857   -5.9871 C.2       6 UNK         0.5081 
     43 O          25.0801    5.2556   -6.1196 O.2       6 UNK        -0.5248 
     44 N          25.4078    3.1776   -6.9707 N.am      7 UNK        -0.4718 
     45 CA         25.0689    3.4677   -8.3679 C.3       7 UNK         0.0273 
     46 CB         23.9675    2.4940   -8.8253 C.3       7 UNK        -0.1935 
     47 C          26.3081    3.3652   -9.2773 C.2       7 UNK         0.5018 
     48 O          26.1742    3.5268  -10.4908 O.2       7 UNK        -0.5186 
     49 N          27.4780    3.0827   -8.6799 N.am      8 UNK        -0.4240 
     50 CA         28.7777    2.8201   -9.3073 C.3       8 UNK         0.0235 
     51 CB         29.3530    4.1123   -9.9236 C.3       8 UNK        -0.2000 
     52 C          28.7395    1.6416  -10.3010 C.2       8 UNK         0.4941 
     53 O          29.4014    1.6938  -11.3394 O.2       8 UNK        -0.5273 
     54 N          27.9545    0.6025   -9.9771 N.am      9 UNK        -0.4262 
     55 CA         27.7456   -0.5676  -10.8331 C.3       9 UNK         0.0264 
     56 CB         26.4955   -1.3286  -10.3607 C.3       9 UNK        -0.1955 
     57 C          28.9579   -1.5135  -10.9165 C.2       9 UNK         0.5031 
     58 O          29.0076   -2.3238  -11.8438 O.2       9 UNK        -0.5390 
     59 N          29.8974   -1.4192   -9.9664 N.am      10 UNK        -0.4204 
     60 CA         31.0936   -2.2519   -9.8975 C.3       10 UNK         0.0237 
     61 CB         30.7673   -3.5958   -9.2068 C.3       10 UNK        -0.1985 
     62 C          32.2348   -1.4513   -9.2520 C.2       10 UNK         0.4970 
     63 O          32.6751   -0.4598   -9.8345 O.2       10 UNK        -0.4914 
     64 N          32.7154   -1.9120   -8.0925 N.am      11 UNK        -0.4285 
     65 CA         33.8847   -1.3952   -7.3662 C.3       11 UNK         0.1007 
     66 C          33.7439    0.0172   -6.7236 C.2       11 UNK         0.5703 
     67 N          32.5757    0.6449   -6.7044 N.am      11 UNK        -0.7361 
     68 O          34.7321    0.5660   -6.2418 O.2       11 UNK        -0.4986 
     69 C69        34.4146   -2.4543   -6.3618 C.3       12 UNK        -0.0947 
     70 S70        33.1604   -2.9662   -5.1369 S.3       12 UNK        -0.2240 
     71 C71        33.8513   -2.2808   -3.6009 C.3       12 UNK         0.0194 
     72 H72        25.9009   -8.3645   -2.7476 H         1 UNK         0.0906 
     73 H73        25.5273   -8.0786   -4.4483 H         1 UNK         0.0906 
     74 H74        27.1257   -8.6654   -3.9813 H         1 UNK         0.0906 
     75 H75        26.2355   -6.4872   -1.6565 H         1 UNK         0.3140 
     76 H76        26.8898   -4.5399   -0.9535 H         1 UNK         0.1085 
     77 H77        28.7364   -4.3228   -3.3844 H         1 UNK         0.0836 
     78 H78        28.6805   -3.1535   -2.1071 H         1 UNK         0.0836 
     79 H79        31.2045   -4.5092    0.3491 H         1 UNK         0.0731 
     80 H80        29.6883   -3.6470    0.4301 H         1 UNK         0.0731 
     81 H81        32.5173   -4.0887   -2.0510 H         1 UNK         0.1312 
     82 H82        32.7406    0.1022   -2.9203 H         1 UNK         0.1406 
     83 H83        29.8310   -1.3490   -0.1273 H         1 UNK         0.1631 
     84 H84        31.5281    1.6706   -1.4159 H         1 UNK         0.0717 
     85 H85        30.3888    1.0600   -0.2463 H         1 UNK         0.0717 
     86 H86        30.6597    2.8095   -3.7705 H         1 UNK         0.0934 
     87 H87        31.0612    1.1438   -4.0583 H         1 UNK         0.0934 
     88 H88        30.0313    2.0365   -6.0248 H         1 UNK         0.0739 
     89 H89        28.0635    0.1715   -4.7873 H         1 UNK         0.3093 
     90 H90        28.3129   -1.9493   -7.6564 H         1 UNK         0.0818 
     91 H91        29.9631   -2.8110   -5.9582 H         1 UNK         0.0819 
     92 H92        28.8421   -2.4066   -4.6745 H         1 UNK         0.0819 
     93 H93        28.4252   -3.6562   -5.8515 H         1 UNK         0.0819 
     94 H94        26.4876   -2.1434   -5.5864 H         1 UNK         0.3041 
     95 H95        24.3247    0.5754   -5.9885 H         1 UNK         0.0784 
     96 H96        23.5867   -0.8709   -7.8989 H         1 UNK         0.0793 
     97 H97        23.7904   -2.3002   -6.8951 H         1 UNK         0.0793 
     98 H98        22.5752   -1.0896   -6.4820 H         1 UNK         0.0793 
     99 H99        23.8522   -1.6502   -4.4335 H         1 UNK         0.3024 
    100 H100       25.3423   -0.4605   -1.5201 H         1 UNK         0.1171 
    101 H101       23.4153   -1.8744   -0.9903 H         1 UNK         0.0786 
    102 H102       22.9564   -0.7427   -2.2471 H         1 UNK         0.0786 
    103 H103       23.2717   -2.4272   -2.6512 H         1 UNK         0.0786 
    104 H104       26.5480   -2.2648   -1.1322 H         1 UNK         0.2977 
    105 H105       26.8850    1.7172   -4.3287 H         1 UNK         0.3127 
    106 H106       26.3961    4.4986   -4.1240 H         1 UNK         0.0770 
    107 H107       24.3735    2.1990   -4.2103 H         1 UNK         0.0814 
    108 H108       24.0837    3.8149   -3.5891 H         1 UNK         0.0814 
    109 H109       25.2241    2.7591   -2.7709 H         1 UNK         0.0814 
    110 H110       25.7240    2.2326   -6.7856 H         1 UNK         0.2983 
    111 H111       24.6861    4.4855   -8.4681 H         1 UNK         0.0947 
    112 H112       23.6284    2.7352   -9.8335 H         1 UNK         0.0806 
    113 H113       23.0967    2.5437   -8.1716 H         1 UNK         0.0806 
    114 H114       24.3171    1.4618   -8.8414 H         1 UNK         0.0806 
    115 H115       27.4631    3.0154   -7.6728 H         1 UNK         0.3000 
    116 H116       29.4489    2.5119   -8.5044 H         1 UNK         0.0850 
    117 H117       30.3711    3.9555  -10.2822 H         1 UNK         0.0810 
    118 H118       29.3900    4.9178   -9.1901 H         1 UNK         0.0810 
    119 H119       28.7583    4.4555  -10.7707 H         1 UNK         0.0810 
    120 H120       27.4299    0.6302   -9.1064 H         1 UNK         0.3040 
    121 H121       27.5515   -0.2057  -11.8451 H         1 UNK         0.0766 
    122 H122       25.6259   -0.6732  -10.3067 H         1 UNK         0.0812 
    123 H123       26.6400   -1.7762   -9.3782 H         1 UNK         0.0812 
    124 H124       26.2497   -2.1373  -11.0502 H         1 UNK         0.0812 
    125 H125       29.8135   -0.7076   -9.2444 H         1 UNK         0.3205 
    126 H126       31.4304   -2.4714  -10.9130 H         1 UNK         0.0754 
    127 H127       31.6487   -4.2357   -9.1441 H         1 UNK         0.0769 
    128 H128       30.0171   -4.1513   -9.7700 H         1 UNK         0.0769 
    129 H129       30.3784   -3.4562   -8.1992 H         1 UNK         0.0769 
    130 H130       32.2702   -2.7118   -7.6690 H         1 UNK         0.2981 
    131 H131       34.6667   -1.2701   -8.1174 H         1 UNK         0.0541 
    132 H132       31.7364    0.2244   -7.0905 H         1 UNK         0.3459 
    133 H133       32.5357    1.5669   -6.3055 H         1 UNK         0.3459 
    134 H134       35.3171   -2.1023   -5.8590 H         1 UNK         0.0612 
    135 H135       34.7208   -3.3480   -6.9075 H         1 UNK         0.0612 
    136 H136       34.5831   -2.9770   -3.1888 H         1 UNK         0.0624 
    137 H137       34.3869   -1.3547   -3.8161 H         1 UNK         0.0624 
@<TRIPOS>BOND
     1    1    2 1    
     2    1   72 1    
     3    1   73 1    
     4    1   74 1    
     5    2    3 2    
     6    2    4 am   BACKBONE|DICT|INTERRES
     7    4    5 1    
     8    4   75 1    
     9    5    6 1    
    10    5   35 1    
    11    5   76 1    
    12    6    7 1    
    13    6   77 1    
    14    6   78 1    
    15    7    8 1    
    16    8    9 1    
    17    8   79 1    
    18    8   80 1    
    19    9   10 ar   
    20    9   14 ar   
    21   10   11 ar   
    22   10   81 1    
    23   11   12 ar   
    24   11   71 1    
    25   12   13 ar   
    26   12   82 1    
    27   13   14 ar   
    28   13   15 1    
    29   14   83 1    
    30   15   16 1    
    31   15   84 1    
    32   15   85 1    
    33   16   17 1    
    34   17   18 1    
    35   17   86 1    
    36   17   87 1    
    37   18   19 1    
    38   18   37 1    
    39   18   88 1    
    40   19   20 am   BACKBONE|DICT|INTERRES
    41   19   89 1    
    42   20   21 2    
    43   20   22 1    
    44   22   23 1    
    45   22   24 1    
    46   22   90 1    
    47   23   91 1    
    48   23   92 1    
    49   23   93 1    
    50   24   25 am   BACKBONE|DICT|INTERRES
    51   24   94 1    
    52   25   26 2    
    53   25   27 1    
    54   27   28 1    
    55   27   29 1    
    56   27   95 1    
    57   28   96 1    
    58   28   97 1    
    59   28   98 1    
    60   29   30 am   BACKBONE|DICT|INTERRES
    61   29   99 1    
    62   30   31 2    
    63   30   32 1    
    64   32   33 1    
    65   32   34 1    
    66   32  100 1    
    67   33  101 1    
    68   33  102 1    
    69   33  103 1    
    70   34   35 am   BACKBONE|DICT|INTERRES
    71   34  104 1    
    72   35   36 2    
    73   37   38 2    
    74   37   39 am   BACKBONE|DICT|INTERRES
    75   39   40 1    
    76   39  105 1    
    77   40   41 1    
    78   40   42 1    
    79   40  106 1    
    80   41  107 1    
    81   41  108 1    
    82   41  109 1    
    83   42   43 2    
    84   42   44 am   BACKBONE|DICT|INTERRES
    85   44   45 1    
    86   44  110 1    
    87   45   46 1    
    88   45   47 1    
    89   45  111 1    
    90   46  112 1    
    91   46  113 1    
    92   46  114 1    
    93   47   48 2    
    94   47   49 am   BACKBONE|DICT|INTERRES
    95   49   50 1    
    96   49  115 1    
    97   50   51 1    
    98   50   52 1    
    99   50  116 1    
   100   51  117 1    
   101   51  118 1    
   102   51  119 1    
   103   52   53 2    
   104   52   54 am   BACKBONE|DICT|INTERRES
   105   54   55 1    
   106   54  120 1    
   107   55   56 1    
   108   55   57 1    
   109   55  121 1    
   110   56  122 1    
   111   56  123 1    
   112   56  124 1    
   113   57   58 2    
   114   57   59 am   BACKBONE|DICT|INTERRES
   115   59   60 1    
   116   59  125 1    
   117   60   61 1    
   118   60   62 1    
   119   60  126 1    
   120   61  127 1    
   121   61  128 1    
   122   61  129 1    
   123   62   63 2    
   124   62   64 am   BACKBONE|DICT|INTERRES
   125   64   65 1    
   126   64  130 1    
   127   65   66 1    
   128   65   69 1    
   129   65  131 1    
   130   66   67 am   BACKBONE|DICT|INTERRES
   131   66   68 2    
   132   67  132 1    
   133   67  133 1    
   134   69   70 1    
   135   69  134 1    
   136   69  135 1    
   137   70   71 1    
   138   71  136 1    
   139   71  137 1    
@<TRIPOS>SUBSTRUCTURE
     1 UNK         1 GROUP             0       ****    0 ROOT    
