@<TRIPOS>MOLECULE
3R137
137   139    1
SMALL
USER_CHARGES


@<TRIPOS>ATOM
      1 CA         30.1248    1.5220    0.2874 C.3       0 UNK        -0.2020 
      2 C          29.7658    0.2825    1.1042 C.2       0 UNK         0.4855 
      3 O          29.9575    0.2869    2.3184 O.2       0 UNK        -0.5197 
      4 N          29.2580   -0.8020    0.5002 N.am      1 UNK        -0.4892 
      5 CA         28.9269   -0.9575   -0.9238 C.3       1 UNK         0.0835 
      6 C6         28.6295   -2.4339   -1.2953 C.3       12 UNK        -0.0855 
      7 S7         29.9928   -3.5606   -0.8544 S.3       12 UNK        -0.2931 
      8 C8         29.6793   -4.9707   -1.9691 C.3       12 UNK         0.0378 
      9 C9         30.0922   -4.7019   -3.4127 C.ar      12 UNK        -0.0802 
     10 C10        31.3708   -4.2137   -3.7022 C.ar      12 UNK        -0.0944 
     11 C11        31.7725   -3.9995   -5.0226 C.ar      12 UNK        -0.0787 
     12 C12        30.8822   -4.2860   -6.0620 C.ar      12 UNK        -0.0862 
     13 C13        29.6066   -4.7993   -5.7955 C.ar      12 UNK        -0.0733 
     14 C14        29.2182   -5.0013   -4.4646 C.ar      12 UNK        -0.0832 
     15 C15        28.7090   -5.1914   -6.9694 C.3       12 UNK         0.0240 
     16 S16        26.9205   -4.8997   -6.7123 S.3       12 UNK        -0.2522 
     17 C17        26.4113   -4.4736   -8.4227 C.3       12 UNK        -0.0967 
     18 CA         26.1930   -2.9583   -8.6893 C.3       5 UNK         0.0660 
     19 N          24.9924   -2.4453   -8.0245 N.am      5 UNK        -0.4015 
     20 C          24.4559   -1.2371   -8.2536 C.2       4 UNK         0.4946 
     21 O          24.8876   -0.4399   -9.0876 O.2       4 UNK        -0.5353 
     22 CA         23.2611   -0.8315   -7.3738 C.3       4 UNK         0.0277 
     23 CB         21.9437   -1.3268   -7.9913 C.3       4 UNK        -0.1981 
     24 N          23.3649   -1.3001   -5.9864 N.am      4 UNK        -0.4209 
     25 C          24.3338   -0.9377   -5.1350 C.2       3 UNK         0.4942 
     26 O          25.2751   -0.2019   -5.4384 O.2       3 UNK        -0.5208 
     27 CA         24.2683   -1.5307   -3.7259 C.3       3 UNK         0.0250 
     28 CB         24.9863   -2.8921   -3.6769 C.3       3 UNK        -0.1990 
     29 N          24.9201   -0.6088   -2.8006 N.am      3 UNK        -0.4232 
     30 C          24.5347   -0.3568   -1.5453 C.2       2 UNK         0.4993 
     31 O          23.5652   -0.8944   -1.0062 O.2       2 UNK        -0.5286 
     32 CA         25.4195    0.6191   -0.7455 C.3       2 UNK         0.0209 
     33 CB         24.7739    1.0591    0.5821 C.3       2 UNK        -0.1931 
     34 N          26.7125   -0.0053   -0.4601 N.am      2 UNK        -0.4546 
     35 C          27.7292   -0.0778   -1.3292 C.2       1 UNK         0.5154 
     36 O          27.7378    0.5113   -2.4084 O.2       1 UNK        -0.5181 
     37 C          27.4347   -2.1075   -8.3493 C.2       5 UNK         0.5014 
     38 O          28.2098   -1.7636   -9.2407 O.2       5 UNK        -0.5248 
     39 N          27.5749   -1.7657   -7.0623 N.am      6 UNK        -0.4434 
     40 CA         28.6614   -0.9635   -6.5181 C.3       6 UNK         0.0363 
     41 CB         28.6842   -1.1062   -4.9921 C.3       6 UNK        -0.1936 
     42 C          28.5594    0.5039   -6.9425 C.2       6 UNK         0.5081 
     43 O          29.5875    1.1084   -7.2386 O.2       6 UNK        -0.5248 
     44 N          27.3348    1.0407   -7.0168 N.am      7 UNK        -0.4718 
     45 CA         27.0498    2.3700   -7.5600 C.3       7 UNK         0.0273 
     46 CB         25.5671    2.7117   -7.3466 C.3       7 UNK        -0.1935 
     47 C          27.4379    2.4912   -9.0441 C.2       7 UNK         0.5018 
     48 O          28.0417    3.4934   -9.4269 O.2       7 UNK        -0.5186 
     49 N          27.1264    1.4558   -9.8385 N.am      8 UNK        -0.4240 
     50 CA         27.5167    1.3479  -11.2465 C.3       8 UNK         0.0235 
     51 CB         26.7419    0.1988  -11.9118 C.3       8 UNK        -0.2000 
     52 C          29.0339    1.1692  -11.4365 C.2       8 UNK         0.4941 
     53 O          29.6118    1.8159  -12.3107 O.2       8 UNK        -0.5273 
     54 N          29.6531    0.3079  -10.6166 N.am      9 UNK        -0.4262 
     55 CA         31.0884    0.0040  -10.6507 C.3       9 UNK         0.0264 
     56 CB         31.3344   -1.3192   -9.9047 C.3       9 UNK        -0.1955 
     57 C          31.9919    1.1085  -10.0691 C.2       9 UNK         0.5031 
     58 O          33.2048    1.0437  -10.2742 O.2       9 UNK        -0.5390 
     59 N          31.4066    2.0638   -9.3308 N.am      10 UNK        -0.4204 
     60 CA         32.0679    3.0865   -8.5067 C.3       10 UNK         0.0237 
     61 CB         32.9205    4.0494   -9.3609 C.3       10 UNK        -0.1985 
     62 C          32.8381    2.4726   -7.3170 C.2       10 UNK         0.4970 
     63 O          33.8877    2.9839   -6.9226 O.2       10 UNK        -0.4914 
     64 N          32.2806    1.3893   -6.7664 N.am      11 UNK        -0.4285 
     65 CA         32.7310    0.6899   -5.5580 C.3       11 UNK         0.1007 
     66 C          32.0825    1.2599   -4.2607 C.2       11 UNK         0.5703 
     67 N          30.9905    2.0132   -4.3441 N.am      11 UNK        -0.7361 
     68 O          32.5868    1.0369   -3.1634 O.2       11 UNK        -0.4986 
     69 C69        32.4827   -0.8351   -5.7124 C.3       12 UNK        -0.0947 
     70 S70        33.5451   -1.8661   -4.6558 S.3       12 UNK        -0.2240 
     71 C71        33.1895   -3.5229   -5.3253 C.3       12 UNK         0.0194 
     72 H72        30.6898    1.2661   -0.6083 H         1 UNK         0.0906 
     73 H73        29.2275    2.0672   -0.0033 H         1 UNK         0.0906 
     74 H74        30.7444    2.1970    0.8777 H         1 UNK         0.0906 
     75 H75        29.0828   -1.6212    1.0651 H         1 UNK         0.3140 
     76 H76        29.7864   -0.6376   -1.5167 H         1 UNK         0.1085 
     77 H77        27.7253   -2.7897   -0.7969 H         1 UNK         0.0836 
     78 H78        28.4398   -2.5219   -2.3666 H         1 UNK         0.0836 
     79 H79        28.6251   -5.2454   -1.9064 H         1 UNK         0.0731 
     80 H80        30.2427   -5.8313   -1.6062 H         1 UNK         0.0731 
     81 H81        32.0619   -4.0070   -2.8963 H         1 UNK         0.1312 
     82 H82        31.1979   -4.1409   -7.0862 H         1 UNK         0.1406 
     83 H83        28.2422   -5.4137   -4.2482 H         1 UNK         0.1631 
     84 H84        28.8614   -6.2484   -7.1905 H         1 UNK         0.0717 
     85 H85        29.0337   -4.6444   -7.8556 H         1 UNK         0.0717 
     86 H86        27.1404   -4.8702   -9.1315 H         1 UNK         0.0934 
     87 H87        25.4910   -5.0174   -8.6417 H         1 UNK         0.0934 
     88 H88        26.0237   -2.8436   -9.7625 H         1 UNK         0.0739 
     89 H89        24.5762   -3.0377   -7.3215 H         1 UNK         0.3093 
     90 H90        23.2337    0.2598   -7.3486 H         1 UNK         0.0818 
     91 H91        21.0812   -0.9589   -7.4352 H         1 UNK         0.0819 
     92 H92        21.8379   -0.9732   -9.0182 H         1 UNK         0.0819 
     93 H93        21.8895   -2.4159   -8.0149 H         1 UNK         0.0819 
     94 H94        22.6325   -1.9146   -5.6592 H         1 UNK         0.3041 
     95 H95        23.2189   -1.6570   -3.4507 H         1 UNK         0.0784 
     96 H96        24.5268   -3.6069   -4.3606 H         1 UNK         0.0793 
     97 H97        26.0384   -2.8063   -3.9521 H         1 UNK         0.0793 
     98 H98        24.9397   -3.3262   -2.6779 H         1 UNK         0.0793 
     99 H99        25.7123   -0.1045   -3.1864 H         1 UNK         0.3024 
    100 H100       25.5688    1.5121   -1.3577 H         1 UNK         0.1171 
    101 H101       25.3979    1.7852    1.1035 H         1 UNK         0.0786 
    102 H102       23.8062    1.5312    0.4070 H         1 UNK         0.0786 
    103 H103       24.6091    0.2158    1.2540 H         1 UNK         0.0786 
    104 H104       26.7864   -0.5186    0.4068 H         1 UNK         0.2977 
    105 H105       26.8722   -2.0761   -6.4085 H         1 UNK         0.3127 
    106 H106       29.5990   -1.3569   -6.9136 H         1 UNK         0.0770 
    107 H107       27.7049   -0.9086   -4.5594 H         1 UNK         0.0814 
    108 H108       28.9852   -2.1103   -4.6976 H         1 UNK         0.0814 
    109 H109       29.3869   -0.4102   -4.5335 H         1 UNK         0.0814 
    110 H110       26.5453    0.5014   -6.6693 H         1 UNK         0.2983 
    111 H111       27.6506    3.0903   -7.0006 H         1 UNK         0.0947 
    112 H112       25.2970    2.6624   -6.2915 H         1 UNK         0.0806 
    113 H113       24.9128    2.0306   -7.8907 H         1 UNK         0.0806 
    114 H114       25.3466    3.7222   -7.6928 H         1 UNK         0.0806 
    115 H115       26.5823    0.6907   -9.4511 H         1 UNK         0.3000 
    116 H116       27.2305    2.2778  -11.7427 H         1 UNK         0.0850 
    117 H117       26.9980    0.1151  -12.9688 H         1 UNK         0.0810 
    118 H118       25.6655    0.3601  -11.8498 H         1 UNK         0.0810 
    119 H119       26.9606   -0.7621  -11.4451 H         1 UNK         0.0810 
    120 H120       29.0885   -0.2488   -9.9779 H         1 UNK         0.3040 
    121 H121       31.3810   -0.1353  -11.6935 H         1 UNK         0.0766 
    122 H122       31.0516   -1.2459   -8.8544 H         1 UNK         0.0812 
    123 H123       32.3873   -1.6021   -9.9398 H         1 UNK         0.0812 
    124 H124       30.7659   -2.1368  -10.3481 H         1 UNK         0.0812 
    125 H125       30.4074    1.9803   -9.1876 H         1 UNK         0.3205 
    126 H126       31.2610    3.6735   -8.0653 H         1 UNK         0.0754 
    127 H127       33.2683    4.8938   -8.7647 H         1 UNK         0.0769 
    128 H128       32.3451    4.4557  -10.1927 H         1 UNK         0.0769 
    129 H129       33.8038    3.5589   -9.7706 H         1 UNK         0.0769 
    130 H130       31.3597    1.1189   -7.1062 H         1 UNK         0.2981 
    131 H131       33.8071    0.8475   -5.4646 H         1 UNK         0.0541 
    132 H132       30.5586    2.1902   -5.2374 H         1 UNK         0.3459 
    133 H133       30.5822    2.3858   -3.5024 H         1 UNK         0.3459 
    134 H134       32.6732   -1.1385   -6.7434 H         1 UNK         0.0612 
    135 H135       31.4433   -1.0881   -5.5121 H         1 UNK         0.0612 
    136 H136       33.8963   -4.2306   -4.8902 H         1 UNK         0.0624 
    137 H137       33.3820   -3.5222   -6.3993 H         1 UNK         0.0624 
@<TRIPOS>BOND
     1    1    2 1    
     2    1   72 1    
     3    1   73 1    
     4    1   74 1    
     5    2    3 2    
     6    2    4 am   BACKBONE|DICT|INTERRES
     7    4    5 1    
     8    4   75 1    
     9    5    6 1    
    10    5   35 1    
    11    5   76 1    
    12    6    7 1    
    13    6   77 1    
    14    6   78 1    
    15    7    8 1    
    16    8    9 1    
    17    8   79 1    
    18    8   80 1    
    19    9   10 ar   
    20    9   14 ar   
    21   10   11 ar   
    22   10   81 1    
    23   11   12 ar   
    24   11   71 1    
    25   12   13 ar   
    26   12   82 1    
    27   13   14 ar   
    28   13   15 1    
    29   14   83 1    
    30   15   16 1    
    31   15   84 1    
    32   15   85 1    
    33   16   17 1    
    34   17   18 1    
    35   17   86 1    
    36   17   87 1    
    37   18   19 1    
    38   18   37 1    
    39   18   88 1    
    40   19   20 am   BACKBONE|DICT|INTERRES
    41   19   89 1    
    42   20   21 2    
    43   20   22 1    
    44   22   23 1    
    45   22   24 1    
    46   22   90 1    
    47   23   91 1    
    48   23   92 1    
    49   23   93 1    
    50   24   25 am   BACKBONE|DICT|INTERRES
    51   24   94 1    
    52   25   26 2    
    53   25   27 1    
    54   27   28 1    
    55   27   29 1    
    56   27   95 1    
    57   28   96 1    
    58   28   97 1    
    59   28   98 1    
    60   29   30 am   BACKBONE|DICT|INTERRES
    61   29   99 1    
    62   30   31 2    
    63   30   32 1    
    64   32   33 1    
    65   32   34 1    
    66   32  100 1    
    67   33  101 1    
    68   33  102 1    
    69   33  103 1    
    70   34   35 am   BACKBONE|DICT|INTERRES
    71   34  104 1    
    72   35   36 2    
    73   37   38 2    
    74   37   39 am   BACKBONE|DICT|INTERRES
    75   39   40 1    
    76   39  105 1    
    77   40   41 1    
    78   40   42 1    
    79   40  106 1    
    80   41  107 1    
    81   41  108 1    
    82   41  109 1    
    83   42   43 2    
    84   42   44 am   BACKBONE|DICT|INTERRES
    85   44   45 1    
    86   44  110 1    
    87   45   46 1    
    88   45   47 1    
    89   45  111 1    
    90   46  112 1    
    91   46  113 1    
    92   46  114 1    
    93   47   48 2    
    94   47   49 am   BACKBONE|DICT|INTERRES
    95   49   50 1    
    96   49  115 1    
    97   50   51 1    
    98   50   52 1    
    99   50  116 1    
   100   51  117 1    
   101   51  118 1    
   102   51  119 1    
   103   52   53 2    
   104   52   54 am   BACKBONE|DICT|INTERRES
   105   54   55 1    
   106   54  120 1    
   107   55   56 1    
   108   55   57 1    
   109   55  121 1    
   110   56  122 1    
   111   56  123 1    
   112   56  124 1    
   113   57   58 2    
   114   57   59 am   BACKBONE|DICT|INTERRES
   115   59   60 1    
   116   59  125 1    
   117   60   61 1    
   118   60   62 1    
   119   60  126 1    
   120   61  127 1    
   121   61  128 1    
   122   61  129 1    
   123   62   63 2    
   124   62   64 am   BACKBONE|DICT|INTERRES
   125   64   65 1    
   126   64  130 1    
   127   65   66 1    
   128   65   69 1    
   129   65  131 1    
   130   66   67 am   BACKBONE|DICT|INTERRES
   131   66   68 2    
   132   67  132 1    
   133   67  133 1    
   134   69   70 1    
   135   69  134 1    
   136   69  135 1    
   137   70   71 1    
   138   71  136 1    
   139   71  137 1    
@<TRIPOS>SUBSTRUCTURE
     1 UNK         1 GROUP             0       ****    0 ROOT    
