@<TRIPOS>MOLECULE
3R137
137   139    1
SMALL
USER_CHARGES


@<TRIPOS>ATOM
      1 CA         29.2559    0.0338   -3.1118 C.3       0 UNK        -0.2020 
      2 C          29.6270    0.1414   -1.6356 C.2       0 UNK         0.4855 
      3 O          30.0880    1.1973   -1.2079 O.2       0 UNK        -0.5197 
      4 N          29.4644   -0.9094   -0.8194 N.am      1 UNK        -0.4892 
      5 CA         28.8605   -2.2064   -1.1455 C.3       1 UNK         0.0835 
      6 C6         29.2877   -3.2794   -0.1086 C.3       12 UNK        -0.0855 
      7 S7         29.0775   -4.9951   -0.7027 S.3       12 UNK        -0.2931 
      8 C8         30.7313   -5.3752   -1.3721 C.3       12 UNK         0.0378 
      9 C9         31.0229   -4.5369   -2.6061 C.ar      12 UNK        -0.0802 
     10 C10        31.8512   -3.4133   -2.5178 C.ar      12 UNK        -0.0944 
     11 C11        32.0347   -2.5826   -3.6260 C.ar      12 UNK        -0.0787 
     12 C12        31.4051   -2.8991   -4.8337 C.ar      12 UNK        -0.0862 
     13 C13        30.5935   -4.0317   -4.9402 C.ar      12 UNK        -0.0733 
     14 C14        30.4115   -4.8516   -3.8237 C.ar      12 UNK        -0.0832 
     15 C15        29.8888   -4.3528   -6.2516 C.3       12 UNK         0.0240 
     16 S16        28.1224   -3.9068   -6.1931 S.3       12 UNK        -0.2522 
     17 C17        28.2145   -2.0973   -6.0014 C.3       12 UNK        -0.0967 
     18 CA         27.3214   -1.3321   -7.0035 C.3       5 UNK         0.0660 
     19 N          25.9001   -1.6481   -6.8712 N.am      5 UNK        -0.4015 
     20 C          24.9905   -1.4540   -7.8365 C.2       4 UNK         0.4946 
     21 O          25.2691   -1.0909   -8.9795 O.2       4 UNK        -0.5353 
     22 CA         23.5141   -1.6861   -7.4660 C.3       4 UNK         0.0277 
     23 CB         23.1029   -3.1331   -7.7825 C.3       4 UNK        -0.1981 
     24 N          23.2128   -1.3916   -6.0623 N.am      4 UNK        -0.4209 
     25 C          23.2836   -0.1737   -5.5047 C.2       3 UNK         0.4942 
     26 O          23.5650    0.8502   -6.1262 O.2       3 UNK        -0.5208 
     27 CA         23.0636   -0.0991   -3.9825 C.3       3 UNK         0.0250 
     28 CB         21.5670    0.0334   -3.6595 C.3       3 UNK        -0.1990 
     29 N          23.6298   -1.2386   -3.2475 N.am      3 UNK        -0.4232 
     30 C          24.9224   -1.5928   -3.2708 C.2       2 UNK         0.4993 
     31 O          25.7765   -1.0066   -3.9406 O.2       2 UNK        -0.5286 
     32 CA         25.3073   -2.8554   -2.4834 C.3       2 UNK         0.0209 
     33 CB         24.9744   -4.1113   -3.3065 C.3       2 UNK        -0.1931 
     34 N          26.7351   -2.8789   -2.1601 N.am      2 UNK        -0.4546 
     35 C          27.3265   -2.0868   -1.2573 C.2       1 UNK         0.5154 
     36 O          26.7149   -1.3019   -0.5274 O.2       1 UNK        -0.5181 
     37 C          27.5284    0.1823   -6.8515 C.2       5 UNK         0.5014 
     38 O          28.1689    0.7864   -7.7057 O.2       5 UNK        -0.5248 
     39 N          26.9637    0.7784   -5.7901 N.am      6 UNK        -0.4434 
     40 CA         27.0767    2.2071   -5.4683 C.3       6 UNK         0.0363 
     41 CB         26.3145    2.4997   -4.1668 C.3       6 UNK        -0.1936 
     42 C          26.5990    3.1446   -6.5935 C.2       6 UNK         0.5081 
     43 O          27.1783    4.2147   -6.7796 O.2       6 UNK        -0.5248 
     44 N          25.5720    2.7145   -7.3361 N.am      7 UNK        -0.4718 
     45 CA         25.0321    3.4073   -8.5056 C.3       7 UNK         0.0273 
     46 CB         23.6004    2.8999   -8.7496 C.3       7 UNK        -0.1935 
     47 C          25.8766    3.2548   -9.7880 C.2       7 UNK         0.5018 
     48 O          25.5694    3.9368  -10.7678 O.2       7 UNK        -0.5186 
     49 N          26.8830    2.3686   -9.8018 N.am      8 UNK        -0.4240 
     50 CA         27.6583    2.0240  -10.9933 C.3       8 UNK         0.0235 
     51 CB         26.9059    0.9498  -11.8110 C.3       8 UNK        -0.2000 
     52 C          29.0896    1.6297  -10.5982 C.2       8 UNK         0.4941 
     53 O          29.8798    2.5057  -10.2397 O.2       8 UNK        -0.5273 
     54 N          29.4146    0.3328  -10.6932 N.am      9 UNK        -0.4262 
     55 CA         30.7304   -0.2524  -10.4253 C.3       9 UNK         0.0264 
     56 CB         30.7981   -1.6385  -11.0937 C.3       9 UNK        -0.1955 
     57 C          31.0569   -0.3151   -8.9207 C.2       9 UNK         0.5031 
     58 O          31.1563   -1.4040   -8.3497 O.2       9 UNK        -0.5390 
     59 N          31.2385    0.8552   -8.2994 N.am      10 UNK        -0.4204 
     60 CA         31.5343    1.0438   -6.8754 C.3       10 UNK         0.0237 
     61 CB         31.1464    2.4805   -6.4783 C.3       10 UNK        -0.1985 
     62 C          32.9900    0.6884   -6.4950 C.2       10 UNK         0.4970 
     63 O          33.6486    1.4730   -5.8109 O.2       10 UNK        -0.4914 
     64 N          33.4331   -0.5026   -6.9201 N.am      11 UNK        -0.4285 
     65 CA         34.7379   -1.1469   -6.6971 C.3       11 UNK         0.1007 
     66 C          35.9868   -0.2192   -6.8123 C.2       11 UNK         0.5703 
     67 N          37.0009   -0.3817   -5.9728 N.am      11 UNK        -0.7361 
     68 O          36.0720    0.6054   -7.7207 O.2       11 UNK        -0.4986 
     69 C69        34.7180   -2.1680   -5.5183 C.3       12 UNK        -0.0947 
     70 S70        34.6200   -1.4856   -3.8239 S.3       12 UNK        -0.2240 
     71 C71        32.8358   -1.2952   -3.4956 C.3       12 UNK         0.0194 
     72 H72        28.1804   -0.0845   -3.2276 H         1 UNK         0.0906 
     73 H73        29.5491    0.9370   -3.6465 H         1 UNK         0.0906 
     74 H74        29.7590   -0.8054   -3.5869 H         1 UNK         0.0906 
     75 H75        29.6891   -0.7823    0.1570 H         1 UNK         0.3140 
     76 H76        29.2384   -2.5074   -2.1224 H         1 UNK         0.1085 
     77 H77        28.7343   -3.1610    0.8253 H         1 UNK         0.0836 
     78 H78        30.3372   -3.1460    0.1590 H         1 UNK         0.0836 
     79 H79        30.7758   -6.4339   -1.6318 H         1 UNK         0.0731 
     80 H80        31.4876   -5.2167   -0.6016 H         1 UNK         0.0731 
     81 H81        32.3148   -3.1571   -1.5749 H         1 UNK         0.1312 
     82 H82        31.5346   -2.2530   -5.6906 H         1 UNK         0.1406 
     83 H83        29.7620   -5.7142   -3.8924 H         1 UNK         0.1631 
     84 H84        29.9781   -5.4196   -6.4611 H         1 UNK         0.0717 
     85 H85        30.3654   -3.8363   -7.0867 H         1 UNK         0.0717 
     86 H86        27.9552   -1.8608   -4.9702 H         1 UNK         0.0934 
     87 H87        29.2481   -1.7771   -6.1358 H         1 UNK         0.0934 
     88 H88        27.6451   -1.6069   -8.0104 H         1 UNK         0.0739 
     89 H89        25.5877   -1.8968   -5.9431 H         1 UNK         0.3093 
     90 H90        22.9134   -1.0147   -8.0836 H         1 UNK         0.0818 
     91 H91        23.2936   -3.3713   -8.8300 H         1 UNK         0.0819 
     92 H92        23.6571   -3.8533   -7.1791 H         1 UNK         0.0819 
     93 H93        22.0391   -3.2921   -7.6052 H         1 UNK         0.0819 
     94 H94        22.9641   -2.1730   -5.4737 H         1 UNK         0.3041 
     95 H95        23.5673    0.8000   -3.6238 H         1 UNK         0.0784 
     96 H96        21.1301    0.8864   -4.1811 H         1 UNK         0.0793 
     97 H97        21.0066   -0.8533   -3.9586 H         1 UNK         0.0793 
     98 H98        21.4033    0.1912   -2.5932 H         1 UNK         0.0793 
     99 H99        22.9855   -1.7773   -2.6860 H         1 UNK         0.3024 
    100 H100       24.7399   -2.8730   -1.5500 H         1 UNK         0.1171 
    101 H101       25.2275   -5.0204   -2.7603 H         1 UNK         0.0786 
    102 H102       23.9097   -4.1635   -3.5376 H         1 UNK         0.0786 
    103 H103       25.5158   -4.1300   -4.2537 H         1 UNK         0.0786 
    104 H104       27.3074   -3.5034   -2.7097 H         1 UNK         0.2977 
    105 H105       26.4484    0.2001   -5.1273 H         1 UNK         0.3127 
    106 H106       28.1344    2.4148   -5.2974 H         1 UNK         0.0770 
    107 H107       25.2437    2.3358   -4.2867 H         1 UNK         0.0814 
    108 H108       26.4516    3.5379   -3.8615 H         1 UNK         0.0814 
    109 H109       26.6609    1.8720   -3.3460 H         1 UNK         0.0814 
    110 H110       25.1062    1.8549   -7.0616 H         1 UNK         0.2983 
    111 H111       24.9817    4.4750   -8.2812 H         1 UNK         0.0947 
    112 H112       23.5866    1.8315   -8.9706 H         1 UNK         0.0806 
    113 H113       23.1360    3.4151   -9.5916 H         1 UNK         0.0806 
    114 H114       22.9663    3.0685   -7.8789 H         1 UNK         0.0806 
    115 H115       27.1465    1.8831   -8.9469 H         1 UNK         0.3000 
    116 H116       27.7638    2.9111  -11.6217 H         1 UNK         0.0850 
    117 H117       27.4824    0.6347  -12.6819 H         1 UNK         0.0810 
    118 H118       25.9583    1.3383  -12.1848 H         1 UNK         0.0810 
    119 H119       26.6800    0.0650  -11.2140 H         1 UNK         0.0810 
    120 H120       28.6858   -0.3141  -10.9561 H         1 UNK         0.3040 
    121 H121       31.4888    0.3782  -10.8943 H         1 UNK         0.0766 
    122 H122       30.6396   -1.5697  -12.1701 H         1 UNK         0.0812 
    123 H123       30.0509   -2.3209  -10.6860 H         1 UNK         0.0812 
    124 H124       31.7756   -2.0981  -10.9411 H         1 UNK         0.0812 
    125 H125       31.0567    1.6926   -8.8453 H         1 UNK         0.3205 
    126 H126       30.8895    0.3675   -6.3103 H         1 UNK         0.0754 
    127 H127       31.2474    2.6324   -5.4028 H         1 UNK         0.0769 
    128 H128       30.1099    2.6966   -6.7393 H         1 UNK         0.0769 
    129 H129       31.7758    3.2189   -6.9763 H         1 UNK         0.0769 
    130 H130       32.7791   -1.0393   -7.4837 H         1 UNK         0.2981 
    131 H131       34.8438   -1.7688   -7.5866 H         1 UNK         0.0541 
    132 H132       36.9345   -1.0446   -5.2161 H         1 UNK         0.3459 
    133 H133       37.8185    0.2000   -6.0668 H         1 UNK         0.3459 
    134 H134       33.9145   -2.8860   -5.6682 H         1 UNK         0.0612 
    135 H135       35.6227   -2.7765   -5.5593 H         1 UNK         0.0612 
    136 H136       32.4148   -0.5302   -4.1428 H         1 UNK         0.0624 
    137 H137       32.7222   -0.9030   -2.4838 H         1 UNK         0.0624 
@<TRIPOS>BOND
     1    1    2 1    
     2    1   72 1    
     3    1   73 1    
     4    1   74 1    
     5    2    3 2    
     6    2    4 am   BACKBONE|DICT|INTERRES
     7    4    5 1    
     8    4   75 1    
     9    5    6 1    
    10    5   35 1    
    11    5   76 1    
    12    6    7 1    
    13    6   77 1    
    14    6   78 1    
    15    7    8 1    
    16    8    9 1    
    17    8   79 1    
    18    8   80 1    
    19    9   10 ar   
    20    9   14 ar   
    21   10   11 ar   
    22   10   81 1    
    23   11   12 ar   
    24   11   71 1    
    25   12   13 ar   
    26   12   82 1    
    27   13   14 ar   
    28   13   15 1    
    29   14   83 1    
    30   15   16 1    
    31   15   84 1    
    32   15   85 1    
    33   16   17 1    
    34   17   18 1    
    35   17   86 1    
    36   17   87 1    
    37   18   19 1    
    38   18   37 1    
    39   18   88 1    
    40   19   20 am   BACKBONE|DICT|INTERRES
    41   19   89 1    
    42   20   21 2    
    43   20   22 1    
    44   22   23 1    
    45   22   24 1    
    46   22   90 1    
    47   23   91 1    
    48   23   92 1    
    49   23   93 1    
    50   24   25 am   BACKBONE|DICT|INTERRES
    51   24   94 1    
    52   25   26 2    
    53   25   27 1    
    54   27   28 1    
    55   27   29 1    
    56   27   95 1    
    57   28   96 1    
    58   28   97 1    
    59   28   98 1    
    60   29   30 am   BACKBONE|DICT|INTERRES
    61   29   99 1    
    62   30   31 2    
    63   30   32 1    
    64   32   33 1    
    65   32   34 1    
    66   32  100 1    
    67   33  101 1    
    68   33  102 1    
    69   33  103 1    
    70   34   35 am   BACKBONE|DICT|INTERRES
    71   34  104 1    
    72   35   36 2    
    73   37   38 2    
    74   37   39 am   BACKBONE|DICT|INTERRES
    75   39   40 1    
    76   39  105 1    
    77   40   41 1    
    78   40   42 1    
    79   40  106 1    
    80   41  107 1    
    81   41  108 1    
    82   41  109 1    
    83   42   43 2    
    84   42   44 am   BACKBONE|DICT|INTERRES
    85   44   45 1    
    86   44  110 1    
    87   45   46 1    
    88   45   47 1    
    89   45  111 1    
    90   46  112 1    
    91   46  113 1    
    92   46  114 1    
    93   47   48 2    
    94   47   49 am   BACKBONE|DICT|INTERRES
    95   49   50 1    
    96   49  115 1    
    97   50   51 1    
    98   50   52 1    
    99   50  116 1    
   100   51  117 1    
   101   51  118 1    
   102   51  119 1    
   103   52   53 2    
   104   52   54 am   BACKBONE|DICT|INTERRES
   105   54   55 1    
   106   54  120 1    
   107   55   56 1    
   108   55   57 1    
   109   55  121 1    
   110   56  122 1    
   111   56  123 1    
   112   56  124 1    
   113   57   58 2    
   114   57   59 am   BACKBONE|DICT|INTERRES
   115   59   60 1    
   116   59  125 1    
   117   60   61 1    
   118   60   62 1    
   119   60  126 1    
   120   61  127 1    
   121   61  128 1    
   122   61  129 1    
   123   62   63 2    
   124   62   64 am   BACKBONE|DICT|INTERRES
   125   64   65 1    
   126   64  130 1    
   127   65   66 1    
   128   65   69 1    
   129   65  131 1    
   130   66   67 am   BACKBONE|DICT|INTERRES
   131   66   68 2    
   132   67  132 1    
   133   67  133 1    
   134   69   70 1    
   135   69  134 1    
   136   69  135 1    
   137   70   71 1    
   138   71  136 1    
   139   71  137 1    
@<TRIPOS>SUBSTRUCTURE
     1 UNK         1 GROUP             0       ****    0 ROOT    
