@<TRIPOS>MOLECULE
3R137
137   139    1
SMALL
USER_CHARGES


@<TRIPOS>ATOM
      1 CA         30.7014    0.4701   -1.7943 C.3       0 UNK        -0.2020 
      2 C          29.6892   -0.5813   -1.3651 C.2       0 UNK         0.4855 
      3 O          29.0632   -0.4363   -0.3149 O.2       0 UNK        -0.5197 
      4 N          29.5166   -1.6275   -2.1827 N.am      1 UNK        -0.4892 
      5 CA         28.6536   -2.8089   -2.0047 C.3       1 UNK         0.0835 
      6 C6         28.9960   -3.6882   -0.7704 C.3       12 UNK        -0.0855 
      7 S7         30.7681   -4.1052   -0.5905 S.3       12 UNK        -0.2931 
      8 C8         30.9621   -5.5717   -1.6567 C.3       12 UNK         0.0378 
      9 C9         31.2652   -5.1689   -3.0922 C.ar      12 UNK        -0.0802 
     10 C10        32.5491   -4.7427   -3.4428 C.ar      12 UNK        -0.0944 
     11 C11        32.8281   -4.3213   -4.7464 C.ar      12 UNK        -0.0787 
     12 C12        31.8037   -4.3138   -5.6997 C.ar      12 UNK        -0.0862 
     13 C13        30.5190   -4.7563   -5.3675 C.ar      12 UNK        -0.0733 
     14 C14        30.2677   -5.2125   -4.0688 C.ar      12 UNK        -0.0832 
     15 C15        29.4172   -4.7758   -6.4223 C.3       12 UNK         0.0240 
     16 S16        27.8448   -4.0722   -5.8225 S.3       12 UNK        -0.2522 
     17 C17        28.1612   -2.2740   -5.8603 C.3       12 UNK        -0.0967 
     18 CA         27.1736   -1.5604   -6.8123 C.3       5 UNK         0.0660 
     19 N          25.7762   -1.7458   -6.4162 N.am      5 UNK        -0.4015 
     20 C          24.7574   -1.8440   -7.2796 C.2       4 UNK         0.4946 
     21 O          24.8852   -1.8104   -8.5041 O.2       4 UNK        -0.5353 
     22 CA         23.3493   -1.9952   -6.6784 C.3       4 UNK         0.0277 
     23 CB         23.0445   -3.4741   -6.3899 C.3       4 UNK        -0.1981 
     24 N          23.1444   -1.2084   -5.4594 N.am      4 UNK        -0.4209 
     25 C          23.2017    0.1292   -5.3985 C.2       3 UNK         0.4942 
     26 O          23.4421    0.8524   -6.3645 O.2       3 UNK        -0.5208 
     27 CA         22.9884    0.7709   -4.0178 C.3       3 UNK         0.0250 
     28 CB         21.4870    0.9502   -3.7405 C.3       3 UNK        -0.1990 
     29 N          23.6101    0.0609   -2.8927 N.am      3 UNK        -0.4232 
     30 C          24.8879   -0.3388   -2.8040 C.2       2 UNK         0.4993 
     31 O          25.6987   -0.2549   -3.7318 O.2       2 UNK        -0.5286 
     32 CA         25.3263   -0.8838   -1.4295 C.3       2 UNK         0.0209 
     33 CB         24.3234   -1.9026   -0.8407 C.3       2 UNK        -0.1931 
     34 N          26.6887   -1.4303   -1.4407 N.am      2 UNK        -0.4546 
     35 C          27.1372   -2.5208   -2.0750 C.2       1 UNK         0.5154 
     36 O          26.4131   -3.2905   -2.7073 O.2       1 UNK        -0.5181 
     37 C          27.4977   -0.0636   -6.9420 C.2       5 UNK         0.5014 
     38 O          28.2389    0.3033   -7.8545 O.2       5 UNK        -0.5248 
     39 N          26.9293    0.7796   -6.0641 N.am      6 UNK        -0.4434 
     40 CA         27.0769    2.2407   -6.0776 C.3       6 UNK         0.0363 
     41 CB         26.4041    2.8437   -4.8368 C.3       6 UNK        -0.1936 
     42 C          26.5458    2.9059   -7.3591 C.2       6 UNK         0.5081 
     43 O          27.1166    3.9016   -7.8024 O.2       6 UNK        -0.5248 
     44 N          25.4905    2.3291   -7.9500 N.am      7 UNK        -0.4718 
     45 CA         24.9482    2.7163   -9.2559 C.3       7 UNK         0.0273 
     46 CB         23.5474    2.1013   -9.4115 C.3       7 UNK        -0.1935 
     47 C          25.8434    2.3154  -10.4467 C.2       7 UNK         0.5018 
     48 O          25.6107    2.8041  -11.5537 O.2       7 UNK        -0.5186 
     49 N          26.8230    1.4326  -10.2140 N.am      8 UNK        -0.4240 
     50 CA         27.7873    0.9449  -11.1938 C.3       8 UNK         0.0235 
     51 CB         27.7302   -0.5979  -11.2187 C.3       8 UNK        -0.2000 
     52 C          29.1717    1.5260  -10.8545 C.2       8 UNK         0.4941 
     53 O          29.3237    2.7485  -10.8405 O.2       8 UNK        -0.5273 
     54 N          30.1620    0.6571  -10.6106 N.am      9 UNK        -0.4262 
     55 CA         31.5575    1.0225  -10.3499 C.3       9 UNK         0.0264 
     56 CB         32.4484   -0.1994  -10.6335 C.3       9 UNK        -0.1955 
     57 C          31.8268    1.5548   -8.9302 C.2       9 UNK         0.5031 
     58 O          32.9076    2.1026   -8.7031 O.2       9 UNK        -0.5390 
     59 N          30.8929    1.3410   -7.9884 N.am      10 UNK        -0.4204 
     60 CA         30.9531    1.7324   -6.5705 C.3       10 UNK         0.0237 
     61 CB         30.8638    3.2675   -6.4352 C.3       10 UNK        -0.1985 
     62 C          32.1453    1.1475   -5.7868 C.2       10 UNK         0.4970 
     63 O          32.4979    1.6839   -4.7356 O.2       10 UNK        -0.4914 
     64 N          32.7433    0.0674   -6.3090 N.am      11 UNK        -0.4285 
     65 CA         33.9945   -0.5347   -5.8274 C.3       11 UNK         0.1007 
     66 C          35.2409    0.3994   -5.9654 C.2       11 UNK         0.5703 
     67 N          35.2205    1.3924   -6.8497 N.am      11 UNK        -0.7361 
     68 O          36.2507    0.2163   -5.2904 O.2       11 UNK        -0.4986 
     69 C69        33.8134   -1.1878   -4.4252 C.3       12 UNK        -0.0947 
     70 S70        34.9406   -2.5852   -4.1031 S.3       12 UNK        -0.2240 
     71 C71        34.2432   -3.9147   -5.1392 C.3       12 UNK         0.0194 
     72 H72        31.2583    0.1650   -2.6802 H         1 UNK         0.0906 
     73 H73        30.1971    1.4100   -2.0172 H         1 UNK         0.0906 
     74 H74        31.4183    0.6492   -0.9935 H         1 UNK         0.0906 
     75 H75        30.0745   -1.6602   -3.0237 H         1 UNK         0.3140 
     76 H76        28.8486   -3.4094   -2.8881 H         1 UNK         0.1085 
     77 H77        28.6932   -3.1755    0.1445 H         1 UNK         0.0836 
     78 H78        28.4202   -4.6155   -0.7930 H         1 UNK         0.0836 
     79 H79        31.7851   -6.1768   -1.2735 H         1 UNK         0.0731 
     80 H80        30.0722   -6.2005   -1.6013 H         1 UNK         0.0731 
     81 H81        33.3317   -4.7310   -2.6963 H         1 UNK         0.1312 
     82 H82        32.0128   -3.9852   -6.7087 H         1 UNK         0.1406 
     83 H83        29.2804   -5.5709   -3.8100 H         1 UNK         0.1631 
     84 H84        29.2428   -5.8113   -6.7170 H         1 UNK         0.0717 
     85 H85        29.7240   -4.2463   -7.3257 H         1 UNK         0.0717 
     86 H86        28.0676   -1.8805   -4.8476 H         1 UNK         0.0934 
     87 H87        29.1937   -2.0931   -6.1663 H         1 UNK         0.0934 
     88 H88        27.3177   -1.9951   -7.8043 H         1 UNK         0.0739 
     89 H89        25.5844   -1.7461   -5.4222 H         1 UNK         0.3093 
     90 H90        22.6361   -1.6376   -7.4242 H         1 UNK         0.0818 
     91 H91        22.0176   -3.6100   -6.0500 H         1 UNK         0.0819 
     92 H92        23.1688   -4.0797   -7.2889 H         1 UNK         0.0819 
     93 H93        23.7094   -3.8834   -5.6278 H         1 UNK         0.0819 
     94 H94        22.9530   -1.7181   -4.6091 H         1 UNK         0.3041 
     95 H95        23.4364    1.7642   -4.0503 H         1 UNK         0.0784 
     96 H96        21.0012    1.4908   -4.5543 H         1 UNK         0.0793 
     97 H97        20.9768   -0.0082   -3.6359 H         1 UNK         0.0793 
     98 H98        21.3161    1.5234   -2.8290 H         1 UNK         0.0793 
     99 H99        23.0264   -0.0581   -2.0774 H         1 UNK         0.3024 
    100 H100       25.3619   -0.0227   -0.7601 H         1 UNK         0.1171 
    101 H101       23.3710   -1.4322   -0.5951 H         1 UNK         0.0786 
    102 H102       24.7034   -2.3417    0.0819 H         1 UNK         0.0786 
    103 H103       24.1142   -2.7177   -1.5344 H         1 UNK         0.0786 
    104 H104       27.3962   -0.8771   -0.9608 H         1 UNK         0.2977 
    105 H105       26.3716    0.3925   -5.3037 H         1 UNK         0.3127 
    106 H106       28.1401    2.4650   -6.0153 H         1 UNK         0.0770 
    107 H107       25.3255    2.6984   -4.8601 H         1 UNK         0.0814 
    108 H108       26.5855    3.9178   -4.7799 H         1 UNK         0.0814 
    109 H109       26.7870    2.3999   -3.9176 H         1 UNK         0.0814 
    110 H110       25.0186    1.5684   -7.4702 H         1 UNK         0.2983 
    111 H111       24.8507    3.8039   -9.2777 H         1 UNK         0.0947 
    112 H112       23.0985    2.3785  -10.3662 H         1 UNK         0.0806 
    113 H113       22.8742    2.4460   -8.6263 H         1 UNK         0.0806 
    114 H114       23.5807    1.0115   -9.3682 H         1 UNK         0.0806 
    115 H115       26.9909    1.1386   -9.2586 H         1 UNK         0.3000 
    116 H116       27.5337    1.3053  -12.1928 H         1 UNK         0.0850 
    117 H117       28.4107   -1.0107  -11.9646 H         1 UNK         0.0810 
    118 H118       26.7296   -0.9425  -11.4814 H         1 UNK         0.0810 
    119 H119       27.9775   -1.0371  -10.2515 H         1 UNK         0.0810 
    120 H120       29.9464   -0.3292  -10.6319 H         1 UNK         0.3040 
    121 H121       31.8394    1.8157  -11.0458 H         1 UNK         0.0766 
    122 H122       33.5023    0.0399  -10.4829 H         1 UNK         0.0812 
    123 H123       32.3421   -0.5368  -11.6648 H         1 UNK         0.0812 
    124 H124       32.2081   -1.0381   -9.9790 H         1 UNK         0.0812 
    125 H125       30.0246    0.8847   -8.2609 H         1 UNK         0.3205 
    126 H126       30.0721    1.3004   -6.0988 H         1 UNK         0.0754 
    127 H127       30.7222    3.5643   -5.3953 H         1 UNK         0.0769 
    128 H128       30.0245    3.6691   -7.0036 H         1 UNK         0.0769 
    129 H129       31.7710    3.7557   -6.7930 H         1 UNK         0.0769 
    130 H130       32.3881   -0.2957   -7.1802 H         1 UNK         0.2981 
    131 H131       34.1871   -1.3348   -6.5407 H         1 UNK         0.0541 
    132 H132       34.4024    1.5706   -7.4227 H         1 UNK         0.3459 
    133 H133       36.0307    1.9843   -6.9388 H         1 UNK         0.3459 
    134 H134       32.7943   -1.5589   -4.3073 H         1 UNK         0.0612 
    135 H135       33.9462   -0.4454   -3.6367 H         1 UNK         0.0612 
    136 H136       34.2873   -3.6154   -6.1867 H         1 UNK         0.0624 
    137 H137       34.8885   -4.7896   -5.0507 H         1 UNK         0.0624 
@<TRIPOS>BOND
     1    1    2 1    
     2    1   72 1    
     3    1   73 1    
     4    1   74 1    
     5    2    3 2    
     6    2    4 am   BACKBONE|DICT|INTERRES
     7    4    5 1    
     8    4   75 1    
     9    5    6 1    
    10    5   35 1    
    11    5   76 1    
    12    6    7 1    
    13    6   77 1    
    14    6   78 1    
    15    7    8 1    
    16    8    9 1    
    17    8   79 1    
    18    8   80 1    
    19    9   10 ar   
    20    9   14 ar   
    21   10   11 ar   
    22   10   81 1    
    23   11   12 ar   
    24   11   71 1    
    25   12   13 ar   
    26   12   82 1    
    27   13   14 ar   
    28   13   15 1    
    29   14   83 1    
    30   15   16 1    
    31   15   84 1    
    32   15   85 1    
    33   16   17 1    
    34   17   18 1    
    35   17   86 1    
    36   17   87 1    
    37   18   19 1    
    38   18   37 1    
    39   18   88 1    
    40   19   20 am   BACKBONE|DICT|INTERRES
    41   19   89 1    
    42   20   21 2    
    43   20   22 1    
    44   22   23 1    
    45   22   24 1    
    46   22   90 1    
    47   23   91 1    
    48   23   92 1    
    49   23   93 1    
    50   24   25 am   BACKBONE|DICT|INTERRES
    51   24   94 1    
    52   25   26 2    
    53   25   27 1    
    54   27   28 1    
    55   27   29 1    
    56   27   95 1    
    57   28   96 1    
    58   28   97 1    
    59   28   98 1    
    60   29   30 am   BACKBONE|DICT|INTERRES
    61   29   99 1    
    62   30   31 2    
    63   30   32 1    
    64   32   33 1    
    65   32   34 1    
    66   32  100 1    
    67   33  101 1    
    68   33  102 1    
    69   33  103 1    
    70   34   35 am   BACKBONE|DICT|INTERRES
    71   34  104 1    
    72   35   36 2    
    73   37   38 2    
    74   37   39 am   BACKBONE|DICT|INTERRES
    75   39   40 1    
    76   39  105 1    
    77   40   41 1    
    78   40   42 1    
    79   40  106 1    
    80   41  107 1    
    81   41  108 1    
    82   41  109 1    
    83   42   43 2    
    84   42   44 am   BACKBONE|DICT|INTERRES
    85   44   45 1    
    86   44  110 1    
    87   45   46 1    
    88   45   47 1    
    89   45  111 1    
    90   46  112 1    
    91   46  113 1    
    92   46  114 1    
    93   47   48 2    
    94   47   49 am   BACKBONE|DICT|INTERRES
    95   49   50 1    
    96   49  115 1    
    97   50   51 1    
    98   50   52 1    
    99   50  116 1    
   100   51  117 1    
   101   51  118 1    
   102   51  119 1    
   103   52   53 2    
   104   52   54 am   BACKBONE|DICT|INTERRES
   105   54   55 1    
   106   54  120 1    
   107   55   56 1    
   108   55   57 1    
   109   55  121 1    
   110   56  122 1    
   111   56  123 1    
   112   56  124 1    
   113   57   58 2    
   114   57   59 am   BACKBONE|DICT|INTERRES
   115   59   60 1    
   116   59  125 1    
   117   60   61 1    
   118   60   62 1    
   119   60  126 1    
   120   61  127 1    
   121   61  128 1    
   122   61  129 1    
   123   62   63 2    
   124   62   64 am   BACKBONE|DICT|INTERRES
   125   64   65 1    
   126   64  130 1    
   127   65   66 1    
   128   65   69 1    
   129   65  131 1    
   130   66   67 am   BACKBONE|DICT|INTERRES
   131   66   68 2    
   132   67  132 1    
   133   67  133 1    
   134   69   70 1    
   135   69  134 1    
   136   69  135 1    
   137   70   71 1    
   138   71  136 1    
   139   71  137 1    
@<TRIPOS>SUBSTRUCTURE
     1 UNK         1 GROUP             0       ****    0 ROOT    
