@<TRIPOS>MOLECULE
3R137
137   139    1
SMALL
USER_CHARGES


@<TRIPOS>ATOM
      1 CA         25.1672   -4.3453    1.4633 C.3       0 UNK        -0.2020 
      2 C          25.9026   -3.5214    0.4173 C.2       0 UNK         0.4855 
      3 O          25.5763   -3.6086   -0.7651 O.2       0 UNK        -0.5197 
      4 N          26.8915   -2.7237    0.8466 N.am      1 UNK        -0.4892 
      5 CA         27.7101   -1.8287    0.0117 C.3       1 UNK         0.0835 
      6 C6         28.5242   -2.5876   -1.0783 C.3       12 UNK        -0.0855 
      7 S7         30.2190   -1.9343   -1.2405 S.3       12 UNK        -0.2931 
      8 C8         31.1365   -3.4323   -1.7101 C.3       12 UNK         0.0378 
      9 C9         31.0801   -3.6909   -3.2095 C.ar      12 UNK        -0.0802 
     10 C10        32.0982   -3.1999   -4.0302 C.ar      12 UNK        -0.0944 
     11 C11        32.1185   -3.4992   -5.3935 C.ar      12 UNK        -0.0787 
     12 C12        31.0963   -4.2812   -5.9421 C.ar      12 UNK        -0.0862 
     13 C13        30.0629   -4.7746   -5.1357 C.ar      12 UNK        -0.0733 
     14 C14        30.0588   -4.4681   -3.7687 C.ar      12 UNK        -0.0832 
     15 C15        29.0200   -5.7349   -5.7065 C.3       12 UNK         0.0240 
     16 S16        28.2453   -5.1741   -7.2619 S.3       12 UNK        -0.2522 
     17 C17        26.9083   -4.0925   -6.6533 C.3       12 UNK        -0.0967 
     18 CA         26.6905   -2.8379   -7.5400 C.3       5 UNK         0.0660 
     19 N          25.4240   -2.1697   -7.2149 N.am      5 UNK        -0.4015 
     20 C          24.9447   -1.0565   -7.7921 C.2       4 UNK         0.4946 
     21 O          25.5059   -0.4575   -8.7067 O.2       4 UNK        -0.5353 
     22 CA         23.6207   -0.4869   -7.2542 C.3       4 UNK         0.0277 
     23 CB         22.4464   -0.9565   -8.1278 C.3       4 UNK        -0.1981 
     24 N          23.3368   -0.7965   -5.8497 N.am      4 UNK        -0.4209 
     25 C          24.1073   -0.4631   -4.8053 C.2       3 UNK         0.4942 
     26 O          25.2069    0.0908   -4.9019 O.2       3 UNK        -0.5208 
     27 CA         23.5539   -0.8509   -3.4306 C.3       3 UNK         0.0250 
     28 CB         23.6180   -2.3749   -3.2183 C.3       3 UNK        -0.1990 
     29 N          24.3253   -0.1842   -2.3881 N.am      3 UNK        -0.4232 
     30 C          23.8621    0.1968   -1.1941 C.2       2 UNK         0.4993 
     31 O          22.6931    0.0444   -0.8326 O.2       2 UNK        -0.5286 
     32 CA         24.8964    0.8085   -0.2298 C.3       2 UNK         0.0209 
     33 CB         24.2490    1.4262    1.0244 C.3       2 UNK        -0.1931 
     34 N          25.8639   -0.2084    0.1883 N.am      2 UNK        -0.4546 
     35 C          26.8993   -0.6352   -0.5492 C.2       1 UNK         0.5154 
     36 O          27.1968   -0.1280   -1.6323 O.2       1 UNK        -0.5181 
     37 C          27.8889   -1.8716   -7.4667 C.2       5 UNK         0.5014 
     38 O          28.5624   -1.6485   -8.4753 O.2       5 UNK        -0.5248 
     39 N          28.0934   -1.2864   -6.2790 N.am      6 UNK        -0.4434 
     40 CA         29.1777   -0.3482   -6.0041 C.3       6 UNK         0.0363 
     41 CB         29.2621   -0.0952   -4.4931 C.3       6 UNK        -0.1936 
     42 C          29.0288    0.9729   -6.7696 C.2       6 UNK         0.5081 
     43 O          30.0387    1.5438   -7.1775 O.2       6 UNK        -0.5248 
     44 N          27.7820    1.4235   -6.9676 N.am      7 UNK        -0.4718 
     45 CA         27.4532    2.6322   -7.7226 C.3       7 UNK         0.0273 
     46 CB         25.9790    3.0028   -7.4948 C.3       7 UNK        -0.1935 
     47 C          27.7627    2.4921   -9.2218 C.2       7 UNK         0.5018 
     48 O          28.4221    3.3679   -9.7819 O.2       7 UNK        -0.5186 
     49 N          27.3007    1.3950   -9.8397 N.am      8 UNK        -0.4240 
     50 CA         27.4834    1.1074  -11.2647 C.3       8 UNK         0.0235 
     51 CB         26.5795   -0.0637  -11.6822 C.3       8 UNK        -0.2000 
     52 C          28.9441    0.8172  -11.6356 C.2       8 UNK         0.4941 
     53 O          29.4100    1.3025  -12.6673 O.2       8 UNK        -0.5273 
     54 N          29.6434    0.0470  -10.7906 N.am      9 UNK        -0.4262 
     55 CA         31.0581   -0.2867  -10.9762 C.3       9 UNK         0.0264 
     56 CB         31.3530   -1.6149  -10.2641 C.3       9 UNK        -0.1955 
     57 C          32.0233    0.8271  -10.5212 C.2       9 UNK         0.5031 
     58 O          33.2132    0.7337  -10.8266 O.2       9 UNK        -0.5390 
     59 N          31.5079    1.8501   -9.8195 N.am      10 UNK        -0.4204 
     60 CA         32.2223    2.9987   -9.2446 C.3       10 UNK         0.0237 
     61 CB         32.7808    3.9134  -10.3556 C.3       10 UNK        -0.1985 
     62 C          33.2853    2.5705   -8.2132 C.2       10 UNK         0.4970 
     63 O          34.4306    3.0237   -8.2704 O.2       10 UNK        -0.4914 
     64 N          32.8804    1.6788   -7.3041 N.am      11 UNK        -0.4285 
     65 CA         33.7222    1.0974   -6.2509 C.3       11 UNK         0.1007 
     66 C          33.9754    2.0893   -5.0846 C.2       11 UNK         0.5703 
     67 N          35.0981    1.9531   -4.3915 N.am      11 UNK        -0.7361 
     68 O          33.1564    2.9545   -4.7784 O.2       11 UNK        -0.4986 
     69 C69        33.1348   -0.2408   -5.7321 C.3       12 UNK        -0.0947 
     70 S70        32.9361   -1.4547   -7.0789 S.3       12 UNK        -0.2240 
     71 C71        33.2823   -3.0349   -6.2567 C.3       12 UNK         0.0194 
     72 H72        25.2596   -5.4071    1.2362 H         1 UNK         0.0906 
     73 H73        24.1081   -4.0886    1.4649 H         1 UNK         0.0906 
     74 H74        25.5587   -4.1780    2.4666 H         1 UNK         0.0906 
     75 H75        27.1137   -2.7091    1.8335 H         1 UNK         0.3140 
     76 H76        28.4161   -1.3792    0.7122 H         1 UNK         0.1085 
     77 H77        28.0285   -2.5731   -2.0512 H         1 UNK         0.0836 
     78 H78        28.5978   -3.6424   -0.8113 H         1 UNK         0.0836 
     79 H79        32.1750   -3.3074   -1.3993 H         1 UNK         0.0731 
     80 H80        30.7687   -4.2981   -1.1578 H         1 UNK         0.0731 
     81 H81        32.8955   -2.6096   -3.5997 H         1 UNK         0.1312 
     82 H82        31.1231   -4.5332   -6.9935 H         1 UNK         0.1406 
     83 H83        29.2836   -4.8676   -3.1290 H         1 UNK         0.1631 
     84 H84        29.5147   -6.6874   -5.9007 H         1 UNK         0.0717 
     85 H85        28.2384   -5.9466   -4.9750 H         1 UNK         0.0717 
     86 H86        25.9990   -4.6957   -6.6357 H         1 UNK         0.0934 
     87 H87        27.0995   -3.8137   -5.6151 H         1 UNK         0.0934 
     88 H88        26.6041   -3.1657   -8.5782 H         1 UNK         0.0739 
     89 H89        24.8767   -2.5819   -6.4749 H         1 UNK         0.3093 
     90 H90        23.6849    0.5996   -7.3333 H         1 UNK         0.0818 
     91 H91        21.5145   -0.4713   -7.8371 H         1 UNK         0.0819 
     92 H92        22.6198   -0.7140   -9.1775 H         1 UNK         0.0819 
     93 H93        22.2997   -2.0354   -8.0633 H         1 UNK         0.0819 
     94 H94        22.4565   -1.2570   -5.6661 H         1 UNK         0.3041 
     95 H95        22.5149   -0.5174   -3.3818 H         1 UNK         0.0784 
     96 H96        23.0249   -2.9098   -3.9606 H         1 UNK         0.0793 
     97 H97        24.6419   -2.7459   -3.2842 H         1 UNK         0.0793 
     98 H98        23.2306   -2.6538   -2.2380 H         1 UNK         0.0793 
     99 H99        25.3015   -0.0159   -2.6157 H         1 UNK         0.3024 
    100 H100       25.4168    1.6060   -0.7658 H         1 UNK         0.1171 
    101 H101       24.9953    1.8987    1.6633 H         1 UNK         0.0786 
    102 H102       23.5253    2.1952    0.7505 H         1 UNK         0.0786 
    103 H103       23.7222    0.6794    1.6199 H         1 UNK         0.0786 
    104 H104       25.6590   -0.7031    1.0443 H         1 UNK         0.2977 
    105 H105       27.4531   -1.4742   -5.5212 H         1 UNK         0.3127 
    106 H106       30.1085   -0.8169   -6.3280 H         1 UNK         0.0770 
    107 H107       28.3336    0.3214   -4.1003 H         1 UNK         0.0814 
    108 H108       30.0610    0.6074   -4.2537 H         1 UNK         0.0814 
    109 H109       29.4707   -1.0188   -3.9539 H         1 UNK         0.0814 
    110 H110       27.0106    0.8864   -6.5940 H         1 UNK         0.2983 
    111 H111       28.0697    3.4452   -7.3323 H         1 UNK         0.0947 
    112 H112       25.7341    3.9422   -7.9921 H         1 UNK         0.0806 
    113 H113       25.7594    3.1296   -6.4345 H         1 UNK         0.0806 
    114 H114       25.3048    2.2427   -7.8884 H         1 UNK         0.0806 
    115 H115       26.7486    0.7201   -9.3105 H         1 UNK         0.3000 
    116 H116       27.1705    1.9917  -11.8243 H         1 UNK         0.0850 
    117 H117       25.5288    0.1635  -11.5011 H         1 UNK         0.0810 
    118 H118       26.8223   -0.9750  -11.1334 H         1 UNK         0.0810 
    119 H119       26.6863   -0.2822  -12.7455 H         1 UNK         0.0810 
    120 H120       29.1806   -0.3522   -9.9780 H         1 UNK         0.3040 
    121 H121       31.2436   -0.4413  -12.0414 H         1 UNK         0.0766 
    122 H122       31.0869   -1.5661   -9.2095 H         1 UNK         0.0812 
    123 H123       32.4104   -1.8758  -10.3267 H         1 UNK         0.0812 
    124 H124       30.7883   -2.4348  -10.7077 H         1 UNK         0.0812 
    125 H125       30.5227    1.8072   -9.5942 H         1 UNK         0.3205 
    126 H126       31.4764    3.5722   -8.6919 H         1 UNK         0.0754 
    127 H127       33.5640    3.4209  -10.9327 H         1 UNK         0.0769 
    128 H128       33.2111    4.8220   -9.9328 H         1 UNK         0.0769 
    129 H129       31.9955    4.2184  -11.0475 H         1 UNK         0.0769 
    130 H130       31.8945    1.4303   -7.2826 H         1 UNK         0.2981 
    131 H131       34.6924    0.8770   -6.7011 H         1 UNK         0.0541 
    132 H132       35.7739    1.2428   -4.6260 H         1 UNK         0.3459 
    133 H133       35.2765    2.5789   -3.6217 H         1 UNK         0.3459 
    134 H134       32.1665   -0.0836   -5.2568 H         1 UNK         0.0612 
    135 H135       33.7877   -0.6669   -4.9688 H         1 UNK         0.0612 
    136 H136       34.1949   -2.9512   -5.6648 H         1 UNK         0.0624 
    137 H137       33.4886   -3.7836   -7.0229 H         1 UNK         0.0624 
@<TRIPOS>BOND
     1    1    2 1    
     2    1   72 1    
     3    1   73 1    
     4    1   74 1    
     5    2    3 2    
     6    2    4 am   BACKBONE|DICT|INTERRES
     7    4    5 1    
     8    4   75 1    
     9    5    6 1    
    10    5   35 1    
    11    5   76 1    
    12    6    7 1    
    13    6   77 1    
    14    6   78 1    
    15    7    8 1    
    16    8    9 1    
    17    8   79 1    
    18    8   80 1    
    19    9   10 ar   
    20    9   14 ar   
    21   10   11 ar   
    22   10   81 1    
    23   11   12 ar   
    24   11   71 1    
    25   12   13 ar   
    26   12   82 1    
    27   13   14 ar   
    28   13   15 1    
    29   14   83 1    
    30   15   16 1    
    31   15   84 1    
    32   15   85 1    
    33   16   17 1    
    34   17   18 1    
    35   17   86 1    
    36   17   87 1    
    37   18   19 1    
    38   18   37 1    
    39   18   88 1    
    40   19   20 am   BACKBONE|DICT|INTERRES
    41   19   89 1    
    42   20   21 2    
    43   20   22 1    
    44   22   23 1    
    45   22   24 1    
    46   22   90 1    
    47   23   91 1    
    48   23   92 1    
    49   23   93 1    
    50   24   25 am   BACKBONE|DICT|INTERRES
    51   24   94 1    
    52   25   26 2    
    53   25   27 1    
    54   27   28 1    
    55   27   29 1    
    56   27   95 1    
    57   28   96 1    
    58   28   97 1    
    59   28   98 1    
    60   29   30 am   BACKBONE|DICT|INTERRES
    61   29   99 1    
    62   30   31 2    
    63   30   32 1    
    64   32   33 1    
    65   32   34 1    
    66   32  100 1    
    67   33  101 1    
    68   33  102 1    
    69   33  103 1    
    70   34   35 am   BACKBONE|DICT|INTERRES
    71   34  104 1    
    72   35   36 2    
    73   37   38 2    
    74   37   39 am   BACKBONE|DICT|INTERRES
    75   39   40 1    
    76   39  105 1    
    77   40   41 1    
    78   40   42 1    
    79   40  106 1    
    80   41  107 1    
    81   41  108 1    
    82   41  109 1    
    83   42   43 2    
    84   42   44 am   BACKBONE|DICT|INTERRES
    85   44   45 1    
    86   44  110 1    
    87   45   46 1    
    88   45   47 1    
    89   45  111 1    
    90   46  112 1    
    91   46  113 1    
    92   46  114 1    
    93   47   48 2    
    94   47   49 am   BACKBONE|DICT|INTERRES
    95   49   50 1    
    96   49  115 1    
    97   50   51 1    
    98   50   52 1    
    99   50  116 1    
   100   51  117 1    
   101   51  118 1    
   102   51  119 1    
   103   52   53 2    
   104   52   54 am   BACKBONE|DICT|INTERRES
   105   54   55 1    
   106   54  120 1    
   107   55   56 1    
   108   55   57 1    
   109   55  121 1    
   110   56  122 1    
   111   56  123 1    
   112   56  124 1    
   113   57   58 2    
   114   57   59 am   BACKBONE|DICT|INTERRES
   115   59   60 1    
   116   59  125 1    
   117   60   61 1    
   118   60   62 1    
   119   60  126 1    
   120   61  127 1    
   121   61  128 1    
   122   61  129 1    
   123   62   63 2    
   124   62   64 am   BACKBONE|DICT|INTERRES
   125   64   65 1    
   126   64  130 1    
   127   65   66 1    
   128   65   69 1    
   129   65  131 1    
   130   66   67 am   BACKBONE|DICT|INTERRES
   131   66   68 2    
   132   67  132 1    
   133   67  133 1    
   134   69   70 1    
   135   69  134 1    
   136   69  135 1    
   137   70   71 1    
   138   71  136 1    
   139   71  137 1    
@<TRIPOS>SUBSTRUCTURE
     1 UNK         1 GROUP             0       ****    0 ROOT    
