@<TRIPOS>MOLECULE
3R137
137   139    1
SMALL
USER_CHARGES


@<TRIPOS>ATOM
      1 CA         26.8332   -5.1862    1.9940 C.3       0 UNK        -0.2020 
      2 C          27.3542   -3.8692    1.4388 C.2       0 UNK         0.4855 
      3 O          27.3315   -2.8582    2.1411 O.2       0 UNK        -0.5197 
      4 N          27.8276   -3.8763    0.1856 N.am      1 UNK        -0.4892 
      5 CA         28.3694   -2.7082   -0.5252 C.3       1 UNK         0.0835 
      6 C6         29.0633   -3.1139   -1.8478 C.3       12 UNK        -0.0855 
      7 S7         30.3804   -4.3596   -1.6045 S.3       12 UNK        -0.2931 
      8 C8         31.8319   -3.5486   -2.3661 C.3       12 UNK         0.0378 
      9 C9         31.8851   -3.5672   -3.8974 C.ar      12 UNK        -0.0802 
     10 C10        33.1068   -3.2946   -4.5204 C.ar      12 UNK        -0.0944 
     11 C11        33.2077   -3.2560   -5.9128 C.ar      12 UNK        -0.0787 
     12 C12        32.0706   -3.4882   -6.6906 C.ar      12 UNK        -0.0862 
     13 C13        30.8372   -3.7665   -6.0951 C.ar      12 UNK        -0.0733 
     14 C14        30.7617   -3.8175   -4.6974 C.ar      12 UNK        -0.0832 
     15 C15        29.6314   -4.0013   -7.0106 C.3       12 UNK         0.0240 
     16 S16        28.0549   -4.4549   -6.1978 S.3       12 UNK        -0.2522 
     17 C17        27.4926   -2.8542   -5.5257 C.3       12 UNK        -0.0967 
     18 CA         26.7563   -2.0002   -6.5962 C.3       5 UNK         0.0660 
     19 N          25.3861   -1.6564   -6.2134 N.am      5 UNK        -0.4015 
     20 C          24.4121   -1.3640   -7.0894 C.2       4 UNK         0.4946 
     21 O          24.5412   -1.4483   -8.3110 O.2       4 UNK        -0.5353 
     22 CA         23.0708   -0.8687   -6.5165 C.3       4 UNK         0.0277 
     23 CB         22.1188   -2.0514   -6.2760 C.3       4 UNK        -0.1981 
     24 N          23.2152   -0.1007   -5.2774 N.am      4 UNK        -0.4209 
     25 C          23.8672    1.0664   -5.1758 C.2       3 UNK         0.4942 
     26 O          24.3515    1.6622   -6.1365 O.2       3 UNK        -0.5208 
     27 CA         24.0619    1.6412   -3.7612 C.3       3 UNK         0.0250 
     28 CB         22.9386    2.6364   -3.4307 C.3       3 UNK        -0.1990 
     29 N          24.1508    0.6336   -2.6972 N.am      3 UNK        -0.4232 
     30 C          25.0243   -0.3830   -2.6451 C.2       2 UNK         0.4993 
     31 O          25.8413   -0.6380   -3.5364 O.2       2 UNK        -0.5286 
     32 CA         24.8884   -1.3067   -1.4222 C.3       2 UNK         0.0209 
     33 CB         23.6926   -2.2571   -1.6076 C.3       2 UNK        -0.1931 
     34 N          26.0811   -2.1133   -1.1597 N.am      2 UNK        -0.4546 
     35 C          27.2843   -1.6445   -0.7981 C.2       1 UNK         0.5154 
     36 O          27.5441   -0.4498   -0.6457 O.2       1 UNK        -0.5181 
     37 C          27.5416   -0.7236   -6.9398 C.2       5 UNK         0.5014 
     38 O          28.2175   -0.7012   -7.9665 O.2       5 UNK        -0.5248 
     39 N          27.4022    0.3248   -6.1105 N.am      6 UNK        -0.4434 
     40 CA         28.0437    1.6346   -6.3000 C.3       6 UNK         0.0363 
     41 CB         27.7049    2.5579   -5.1205 C.3       6 UNK        -0.1936 
     42 C          27.6857    2.3157   -7.6362 C.2       6 UNK         0.5081 
     43 O          28.5229    3.0085   -8.2143 O.2       6 UNK        -0.5248 
     44 N          26.4534    2.0928   -8.1114 N.am      7 UNK        -0.4718 
     45 CA         25.9711    2.5219   -9.4242 C.3       7 UNK         0.0273 
     46 CB         24.4383    2.4079   -9.4515 C.3       7 UNK        -0.1935 
     47 C          26.5855    1.7323  -10.5961 C.2       7 UNK         0.5018 
     48 O          26.6424    2.2672  -11.7042 O.2       7 UNK        -0.5186 
     49 N          27.0139    0.4853  -10.3519 N.am      8 UNK        -0.4240 
     50 CA         27.6332   -0.3873  -11.3510 C.3       8 UNK         0.0235 
     51 CB         27.3338   -1.8595  -11.0192 C.3       8 UNK        -0.2000 
     52 C          29.1458   -0.1418  -11.4536 C.2       8 UNK         0.4941 
     53 O          29.6670   -0.0711  -12.5677 O.2       8 UNK        -0.5273 
     54 N          29.8198   -0.0001  -10.3062 N.am      9 UNK        -0.4262 
     55 CA         31.2387    0.3265  -10.2003 C.3       9 UNK         0.0264 
     56 CB         32.0746   -0.9645  -10.1641 C.3       9 UNK        -0.1955 
     57 C          31.4369    1.1446   -8.9240 C.2       9 UNK         0.5031 
     58 O          30.9147    0.7539   -7.8811 O.2       9 UNK        -0.5390 
     59 N          32.2043    2.2402   -9.0133 N.am      10 UNK        -0.4204 
     60 CA         32.3903    3.2474   -7.9558 C.3       10 UNK         0.0237 
     61 CB         33.3115    4.3610   -8.4816 C.3       10 UNK        -0.1985 
     62 C          32.9068    2.7209   -6.6015 C.2       10 UNK         0.4970 
     63 O          32.6938    3.3792   -5.5824 O.2       10 UNK        -0.4914 
     64 N          33.5612    1.5549   -6.6108 N.am      11 UNK        -0.4285 
     65 CA         33.9347    0.7797   -5.4212 C.3       11 UNK         0.1007 
     66 C          32.7375    0.1910   -4.6169 C.2       11 UNK         0.5703 
     67 N          31.5389    0.0798   -5.1776 N.am      11 UNK        -0.7361 
     68 O          32.9005   -0.1424   -3.4455 O.2       11 UNK        -0.4986 
     69 C69        35.0089   -0.2924   -5.7555 C.3       12 UNK        -0.0947 
     70 S70        34.6420   -1.2890   -7.2460 S.3       12 UNK        -0.2240 
     71 C71        34.5446   -2.9800   -6.5831 C.3       12 UNK         0.0194 
     72 H72        25.7829   -5.0886    2.2675 H         1 UNK         0.0906 
     73 H73        26.9215   -5.9978    1.2719 H         1 UNK         0.0906 
     74 H74        27.3933   -5.4648    2.8863 H         1 UNK         0.0906 
     75 H75        27.8606   -4.7467   -0.3269 H         1 UNK         0.3140 
     76 H76        29.1167   -2.2453    0.1234 H         1 UNK         0.1085 
     77 H77        29.4829   -2.2335   -2.3396 H         1 UNK         0.0836 
     78 H78        28.3320   -3.5300   -2.5434 H         1 UNK         0.0836 
     79 H79        31.8905   -2.5151   -2.0214 H         1 UNK         0.0731 
     80 H80        32.7216   -4.0483   -1.9799 H         1 UNK         0.0731 
     81 H81        33.9822   -3.0979   -3.9166 H         1 UNK         0.1312 
     82 H82        32.1493   -3.4513   -7.7684 H         1 UNK         0.1406 
     83 H83        29.8204   -4.0492   -4.2311 H         1 UNK         0.1631 
     84 H84        29.8833   -4.8051   -7.7036 H         1 UNK         0.0717 
     85 H85        29.4722   -3.1127   -7.6229 H         1 UNK         0.0717 
     86 H86        26.8303   -3.0764   -4.6872 H         1 UNK         0.0934 
     87 H87        28.3408   -2.3309   -5.0795 H         1 UNK         0.0934 
     88 H88        26.6946   -2.5767   -7.5225 H         1 UNK         0.0739 
     89 H89        25.2306   -1.4904   -5.2247 H         1 UNK         0.3093 
     90 H90        22.6202   -0.2112   -7.2633 H         1 UNK         0.0818 
     91 H91        21.1345   -1.7104   -5.9544 H         1 UNK         0.0819 
     92 H92        21.9760   -2.6283   -7.1910 H         1 UNK         0.0819 
     93 H93        22.5037   -2.7342   -5.5173 H         1 UNK         0.0819 
     94 H94        22.8377   -0.5118   -4.4365 H         1 UNK         0.3041 
     95 H95        25.0059    2.1861   -3.7574 H         1 UNK         0.0784 
     96 H96        22.8683    3.4127   -4.1943 H         1 UNK         0.0793 
     97 H97        21.9661    2.1455   -3.3750 H         1 UNK         0.0793 
     98 H98        23.1180    3.1380   -2.4795 H         1 UNK         0.0793 
     99 H99        23.5031    0.7467   -1.9302 H         1 UNK         0.3024 
    100 H100       24.7155   -0.6819   -0.5428 H         1 UNK         0.1171 
    101 H101       22.7627   -1.7051   -1.7506 H         1 UNK         0.0786 
    102 H102       23.5523   -2.8930   -0.7331 H         1 UNK         0.0786 
    103 H103       23.8235   -2.9054   -2.4753 H         1 UNK         0.0786 
    104 H104       25.9776   -3.1126   -1.2532 H         1 UNK         0.2977 
    105 H105       26.8332    0.2086   -5.2798 H         1 UNK         0.3127 
    106 H106       29.1202    1.4673   -6.2870 H         1 UNK         0.0770 
    107 H107       26.6641    2.8779   -5.1490 H         1 UNK         0.0814 
    108 H108       28.3175    3.4598   -5.1533 H         1 UNK         0.0814 
    109 H109       27.8903    2.0739   -4.1613 H         1 UNK         0.0814 
    110 H110       25.7879    1.6113   -7.5135 H         1 UNK         0.2983 
    111 H111       26.2407    3.5716   -9.5595 H         1 UNK         0.0947 
    112 H112       24.0369    2.7402  -10.4099 H         1 UNK         0.0806 
    113 H113       23.9813    3.0244   -8.6771 H         1 UNK         0.0806 
    114 H114       24.1092    1.3792   -9.2965 H         1 UNK         0.0806 
    115 H115       27.0052    0.1427   -9.3979 H         1 UNK         0.3000 
    116 H116       27.1930   -0.1745  -12.3278 H         1 UNK         0.0850 
    117 H117       27.7193   -2.5177  -11.7988 H         1 UNK         0.0810 
    118 H118       26.2609   -2.0382  -10.9433 H         1 UNK         0.0810 
    119 H119       27.7901   -2.1710  -10.0795 H         1 UNK         0.0810 
    120 H120       29.3282   -0.0802   -9.4156 H         1 UNK         0.3040 
    121 H121       31.5412    0.9299  -11.0590 H         1 UNK         0.0766 
    122 H122       31.9360   -1.5538  -11.0705 H         1 UNK         0.0812 
    123 H123       31.8038   -1.5897   -9.3125 H         1 UNK         0.0812 
    124 H124       33.1385   -0.7404  -10.0801 H         1 UNK         0.0812 
    125 H125       32.6182    2.4599   -9.9081 H         1 UNK         0.3205 
    126 H126       31.4070    3.6820   -7.7631 H         1 UNK         0.0754 
    127 H127       33.4472    5.1436   -7.7335 H         1 UNK         0.0769 
    128 H128       32.8947    4.8368   -9.3696 H         1 UNK         0.0769 
    129 H129       34.3009    3.9786   -8.7359 H         1 UNK         0.0769 
    130 H130       33.6670    1.0704   -7.4893 H         1 UNK         0.2981 
    131 H131       34.4087    1.4849   -4.7358 H         1 UNK         0.0541 
    132 H132       31.3878    0.3340   -6.1523 H         1 UNK         0.3459 
    133 H133       30.7848   -0.3073   -4.6384 H         1 UNK         0.3459 
    134 H134       35.1918   -0.9450   -4.9001 H         1 UNK         0.0612 
    135 H135       35.9598    0.2089   -5.9410 H         1 UNK         0.0612 
    136 H136       34.6812   -3.6824   -7.4066 H         1 UNK         0.0624 
    137 H137       35.3737   -3.1555   -5.8960 H         1 UNK         0.0624 
@<TRIPOS>BOND
     1    1    2 1    
     2    1   72 1    
     3    1   73 1    
     4    1   74 1    
     5    2    3 2    
     6    2    4 am   BACKBONE|DICT|INTERRES
     7    4    5 1    
     8    4   75 1    
     9    5    6 1    
    10    5   35 1    
    11    5   76 1    
    12    6    7 1    
    13    6   77 1    
    14    6   78 1    
    15    7    8 1    
    16    8    9 1    
    17    8   79 1    
    18    8   80 1    
    19    9   10 ar   
    20    9   14 ar   
    21   10   11 ar   
    22   10   81 1    
    23   11   12 ar   
    24   11   71 1    
    25   12   13 ar   
    26   12   82 1    
    27   13   14 ar   
    28   13   15 1    
    29   14   83 1    
    30   15   16 1    
    31   15   84 1    
    32   15   85 1    
    33   16   17 1    
    34   17   18 1    
    35   17   86 1    
    36   17   87 1    
    37   18   19 1    
    38   18   37 1    
    39   18   88 1    
    40   19   20 am   BACKBONE|DICT|INTERRES
    41   19   89 1    
    42   20   21 2    
    43   20   22 1    
    44   22   23 1    
    45   22   24 1    
    46   22   90 1    
    47   23   91 1    
    48   23   92 1    
    49   23   93 1    
    50   24   25 am   BACKBONE|DICT|INTERRES
    51   24   94 1    
    52   25   26 2    
    53   25   27 1    
    54   27   28 1    
    55   27   29 1    
    56   27   95 1    
    57   28   96 1    
    58   28   97 1    
    59   28   98 1    
    60   29   30 am   BACKBONE|DICT|INTERRES
    61   29   99 1    
    62   30   31 2    
    63   30   32 1    
    64   32   33 1    
    65   32   34 1    
    66   32  100 1    
    67   33  101 1    
    68   33  102 1    
    69   33  103 1    
    70   34   35 am   BACKBONE|DICT|INTERRES
    71   34  104 1    
    72   35   36 2    
    73   37   38 2    
    74   37   39 am   BACKBONE|DICT|INTERRES
    75   39   40 1    
    76   39  105 1    
    77   40   41 1    
    78   40   42 1    
    79   40  106 1    
    80   41  107 1    
    81   41  108 1    
    82   41  109 1    
    83   42   43 2    
    84   42   44 am   BACKBONE|DICT|INTERRES
    85   44   45 1    
    86   44  110 1    
    87   45   46 1    
    88   45   47 1    
    89   45  111 1    
    90   46  112 1    
    91   46  113 1    
    92   46  114 1    
    93   47   48 2    
    94   47   49 am   BACKBONE|DICT|INTERRES
    95   49   50 1    
    96   49  115 1    
    97   50   51 1    
    98   50   52 1    
    99   50  116 1    
   100   51  117 1    
   101   51  118 1    
   102   51  119 1    
   103   52   53 2    
   104   52   54 am   BACKBONE|DICT|INTERRES
   105   54   55 1    
   106   54  120 1    
   107   55   56 1    
   108   55   57 1    
   109   55  121 1    
   110   56  122 1    
   111   56  123 1    
   112   56  124 1    
   113   57   58 2    
   114   57   59 am   BACKBONE|DICT|INTERRES
   115   59   60 1    
   116   59  125 1    
   117   60   61 1    
   118   60   62 1    
   119   60  126 1    
   120   61  127 1    
   121   61  128 1    
   122   61  129 1    
   123   62   63 2    
   124   62   64 am   BACKBONE|DICT|INTERRES
   125   64   65 1    
   126   64  130 1    
   127   65   66 1    
   128   65   69 1    
   129   65  131 1    
   130   66   67 am   BACKBONE|DICT|INTERRES
   131   66   68 2    
   132   67  132 1    
   133   67  133 1    
   134   69   70 1    
   135   69  134 1    
   136   69  135 1    
   137   70   71 1    
   138   71  136 1    
   139   71  137 1    
@<TRIPOS>SUBSTRUCTURE
     1 UNK         1 GROUP             0       ****    0 ROOT    
