@<TRIPOS>MOLECULE
3R137
137   139    1
SMALL
USER_CHARGES


@<TRIPOS>ATOM
      1 CA         25.3760   -4.6262   -2.8826 C.3       0 UNK        -0.2020 
      2 C          26.0695   -3.9816   -1.6930 C.2       0 UNK         0.4855 
      3 O          25.3975   -3.5818   -0.7417 O.2       0 UNK        -0.5197 
      4 N          27.4071   -3.8977   -1.7303 N.am      1 UNK        -0.4892 
      5 CA         28.2296   -3.2662   -0.6888 C.3       1 UNK         0.0835 
      6 C6         29.7239   -3.6745   -0.7629 C.3       12 UNK        -0.0855 
      7 S7         29.9369   -5.4881   -0.7126 S.3       12 UNK        -0.2931 
      8 C8         31.4617   -5.7354   -1.6870 C.3       12 UNK         0.0378 
      9 C9         31.3833   -5.2081   -3.1181 C.ar      12 UNK        -0.0802 
     10 C10        32.4416   -4.4496   -3.6316 C.ar      12 UNK        -0.0944 
     11 C11        32.4040   -3.9654   -4.9425 C.ar      12 UNK        -0.0787 
     12 C12        31.2976   -4.2541   -5.7448 C.ar      12 UNK        -0.0862 
     13 C13        30.2144   -4.9717   -5.2343 C.ar      12 UNK        -0.0733 
     14 C14        30.2731   -5.4722   -3.9300 C.ar      12 UNK        -0.0832 
     15 C15        28.9686   -5.1636   -6.0866 C.3       12 UNK         0.0240 
     16 S16        27.6107   -4.0711   -5.5489 S.3       12 UNK        -0.2522 
     17 C17        28.3283   -2.3972   -5.6989 C.3       12 UNK        -0.0967 
     18 CA         27.5375   -1.4787   -6.6562 C.3       5 UNK         0.0660 
     19 N          26.1293   -1.3438   -6.2766 N.am      5 UNK        -0.4015 
     20 C          25.1565   -0.9710   -7.1194 C.2       4 UNK         0.4946 
     21 O          25.3494   -0.7198   -8.3082 O.2       4 UNK        -0.5353 
     22 CA         23.7464   -0.7810   -6.5302 C.3       4 UNK         0.0277 
     23 CB         22.9822   -2.1141   -6.5290 C.3       4 UNK        -0.1981 
     24 N          23.7544   -0.2183   -5.1759 N.am      4 UNK        -0.4209 
     25 C          24.3053    0.9570   -4.8423 C.2       3 UNK         0.4942 
     26 O          24.8052    1.7251   -5.6647 O.2       3 UNK        -0.5208 
     27 CA         24.4007    1.3027   -3.3428 C.3       3 UNK         0.0250 
     28 CB         23.4277    0.4971   -2.4514 C.3       3 UNK        -0.1990 
     29 N          25.7807    1.1696   -2.8487 N.am      3 UNK        -0.4232 
     30 C          26.5504    0.0721   -2.9219 C.2       2 UNK         0.4993 
     31 O          26.1769   -0.9848   -3.4380 O.2       2 UNK        -0.5286 
     32 CA         27.9981    0.1604   -2.4026 C.3       2 UNK         0.0209 
     33 CB         28.2677    1.3113   -1.4058 C.3       2 UNK        -0.1931 
     34 N          28.4090   -1.1540   -1.8928 N.am      2 UNK        -0.4546 
     35 C          28.0461   -1.7372   -0.7397 C.2       1 UNK         0.5154 
     36 O          27.5386   -1.1512    0.2176 O.2       1 UNK        -0.5181 
     37 C          28.2362   -0.1089   -6.7861 C.2       5 UNK         0.5014 
     38 O          29.2572   -0.0269   -7.4691 O.2       5 UNK        -0.5248 
     39 N          27.6941    0.9499   -6.1631 N.am      6 UNK        -0.4434 
     40 CA         28.1642    2.3223   -6.3654 C.3       6 UNK         0.0363 
     41 CB         27.7314    3.2317   -5.2051 C.3       6 UNK        -0.1936 
     42 C          27.6825    2.8672   -7.7164 C.2       6 UNK         0.5081 
     43 O          28.4589    3.5148   -8.4153 O.2       6 UNK        -0.5248 
     44 N          26.4354    2.5486   -8.0873 N.am      7 UNK        -0.4718 
     45 CA         25.8769    2.8447   -9.4067 C.3       7 UNK         0.0273 
     46 CB         24.3631    2.5759   -9.3990 C.3       7 UNK        -0.1935 
     47 C          26.5742    2.0590  -10.5327 C.2       7 UNK         0.5018 
     48 O          26.9029    2.6487  -11.5628 O.2       7 UNK        -0.5186 
     49 N          26.7811    0.7512  -10.3212 N.am      8 UNK        -0.4240 
     50 CA         27.3527   -0.1562  -11.3167 C.3       8 UNK         0.0235 
     51 CB         26.9503   -1.6040  -10.9904 C.3       8 UNK        -0.2000 
     52 C          28.8789   -0.0493  -11.4671 C.2       8 UNK         0.4941 
     53 O          29.3577   -0.0185  -12.6018 O.2       8 UNK        -0.5273 
     54 N          29.6161   -0.0534  -10.3465 N.am      9 UNK        -0.4262 
     55 CA         31.0667   -0.2835  -10.3256 C.3       9 UNK         0.0264 
     56 CB         31.3244   -1.6775   -9.7214 C.3       9 UNK        -0.1955 
     57 C          31.8670    0.7959   -9.5765 C.2       9 UNK         0.5031 
     58 O          33.0896    0.6665   -9.4979 O.2       9 UNK        -0.5390 
     59 N          31.1961    1.8295   -9.0438 N.am      10 UNK        -0.4204 
     60 CA         31.7647    2.9236   -8.2399 C.3       10 UNK         0.0237 
     61 CB         32.7431    3.7818   -9.0720 C.3       10 UNK        -0.1985 
     62 C          32.3631    2.4638   -6.8929 C.2       10 UNK         0.4970 
     63 O          33.2524    3.1326   -6.3641 O.2       10 UNK        -0.4914 
     64 N          31.8504    1.3544   -6.3439 N.am      11 UNK        -0.4285 
     65 CA         32.2810    0.7711   -5.0605 C.3       11 UNK         0.1007 
     66 C          31.6847    1.4622   -3.7970 C.2       11 UNK         0.5703 
     67 N          30.9216    2.5417   -3.9168 N.am      11 UNK        -0.7361 
     68 O          31.9286    1.0172   -2.6785 O.2       11 UNK        -0.4986 
     69 C69        32.0528   -0.7616   -5.0360 C.3       12 UNK        -0.0947 
     70 S70        32.9889   -1.6175   -6.3479 S.3       12 UNK        -0.2240 
     71 C71        33.5544   -3.1221   -5.4835 C.3       12 UNK         0.0194 
     72 H72        25.1099   -3.8651   -3.6160 H         1 UNK         0.0906 
     73 H73        26.0152   -5.3657   -3.3641 H         1 UNK         0.0906 
     74 H74        24.4632   -5.1303   -2.5663 H         1 UNK         0.0906 
     75 H75        27.9045   -4.2548   -2.5329 H         1 UNK         0.3140 
     76 H76        27.8496   -3.6009    0.2796 H         1 UNK         0.1085 
     77 H77        30.1883   -3.2793   -1.6673 H         1 UNK         0.0836 
     78 H78        30.2770   -3.2444    0.0743 H         1 UNK         0.0836 
     79 H79        32.2884   -5.2681   -1.1494 H         1 UNK         0.0731 
     80 H80        31.6839   -6.8026   -1.7225 H         1 UNK         0.0731 
     81 H81        33.2990   -4.2346   -3.0084 H         1 UNK         0.1312 
     82 H82        31.2609   -3.8774   -6.7579 H         1 UNK         0.1406 
     83 H83        29.4435   -6.0455   -3.5392 H         1 UNK         0.1631 
     84 H84        28.6376   -6.2010   -6.0212 H         1 UNK         0.0717 
     85 H85        29.1829   -4.9751   -7.1398 H         1 UNK         0.0717 
     86 H86        29.3557   -2.4751   -6.0509 H         1 UNK         0.0934 
     87 H87        28.3832   -1.9645   -4.7006 H         1 UNK         0.0934 
     88 H88        27.5733   -1.9399   -7.6449 H         1 UNK         0.0739 
     89 H89        25.9179   -1.4780   -5.2907 H         1 UNK         0.3093 
     90 H90        23.2142   -0.0790   -7.1755 H         1 UNK         0.0818 
     91 H91        21.9521   -1.9816   -6.1974 H         1 UNK         0.0819 
     92 H92        22.9451   -2.5421   -7.5319 H         1 UNK         0.0819 
     93 H93        23.4540   -2.8511   -5.8776 H         1 UNK         0.0819 
     94 H94        23.4049   -0.8062   -4.4331 H         1 UNK         0.3041 
     95 H95        24.1338    2.3571   -3.2568 H         1 UNK         0.0784 
     96 H96        22.3988    0.5938   -2.8010 H         1 UNK         0.0793 
     97 H97        23.6715   -0.5656   -2.4184 H         1 UNK         0.0793 
     98 H98        23.4496    0.8648   -1.4254 H         1 UNK         0.0793 
     99 H99        26.1752    2.0012   -2.4323 H         1 UNK         0.3024 
    100 H100       28.6191    0.3459   -3.2804 H         1 UNK         0.1171 
    101 H101       29.2775    1.2467   -0.9999 H         1 UNK         0.0786 
    102 H102       27.5711    1.3055   -0.5670 H         1 UNK         0.0786 
    103 H103       28.1854    2.2844   -1.8897 H         1 UNK         0.0786 
    104 H104       28.7854   -1.7712   -2.5963 H         1 UNK         0.2977 
    105 H105       26.8043    0.8428   -5.6936 H         1 UNK         0.3127 
    106 H106       29.2536    2.3153   -6.3825 H         1 UNK         0.0770 
    107 H107       26.6526    3.3757   -5.1681 H         1 UNK         0.0814 
    108 H108       28.1793    4.2210   -5.3066 H         1 UNK         0.0814 
    109 H109       28.0512    2.8309   -4.2452 H         1 UNK         0.0814 
    110 H110       25.8386    2.0621   -7.4264 H         1 UNK         0.2983 
    111 H111       26.0301    3.9082   -9.6038 H         1 UNK         0.0947 
    112 H112       23.9194    2.8213  -10.3648 H         1 UNK         0.0806 
    113 H113       23.8575    3.1815   -8.6465 H         1 UNK         0.0806 
    114 H114       24.1357    1.5299   -9.1925 H         1 UNK         0.0806 
    115 H115       26.3998    0.3262   -9.4785 H         1 UNK         0.3000 
    116 H116       26.9134    0.0912  -12.2860 H         1 UNK         0.0850 
    117 H117       27.3294   -2.2948  -11.7448 H         1 UNK         0.0810 
    118 H118       25.8663   -1.7173  -10.9636 H         1 UNK         0.0810 
    119 H119       27.3426   -1.9276  -10.0264 H         1 UNK         0.0810 
    120 H120       29.1609   -0.0665   -9.4389 H         1 UNK         0.3040 
    121 H121       31.4666   -0.2859  -11.3415 H         1 UNK         0.0766 
    122 H122       32.3899   -1.9101   -9.6987 H         1 UNK         0.0812 
    123 H123       30.9557   -1.7464   -8.6975 H         1 UNK         0.0812 
    124 H124       30.8372   -2.4584  -10.3052 H         1 UNK         0.0812 
    125 H125       30.1923    1.8558   -9.1646 H         1 UNK         0.3205 
    126 H126       30.9334    3.5736   -7.9731 H         1 UNK         0.0754 
    127 H127       33.0291    4.6848   -8.5312 H         1 UNK         0.0769 
    128 H128       32.2905    4.1000  -10.0111 H         1 UNK         0.0769 
    129 H129       33.6611    3.2424   -9.3067 H         1 UNK         0.0769 
    130 H130       31.1212    0.8524   -6.8369 H         1 UNK         0.2981 
    131 H131       33.3579    0.9280   -4.9758 H         1 UNK         0.0541 
    132 H132       30.7691    2.9619   -4.8168 H         1 UNK         0.3459 
    133 H133       30.5747    2.9864   -3.0827 H         1 UNK         0.3459 
    134 H134       30.9940   -0.9933   -5.1526 H         1 UNK         0.0612 
    135 H135       32.3541   -1.1787   -4.0734 H         1 UNK         0.0612 
    136 H136       34.1383   -3.7273   -6.1777 H         1 UNK         0.0624 
    137 H137       34.2316   -2.8275   -4.6804 H         1 UNK         0.0624 
@<TRIPOS>BOND
     1    1    2 1    
     2    1   72 1    
     3    1   73 1    
     4    1   74 1    
     5    2    3 2    
     6    2    4 am   BACKBONE|DICT|INTERRES
     7    4    5 1    
     8    4   75 1    
     9    5    6 1    
    10    5   35 1    
    11    5   76 1    
    12    6    7 1    
    13    6   77 1    
    14    6   78 1    
    15    7    8 1    
    16    8    9 1    
    17    8   79 1    
    18    8   80 1    
    19    9   10 ar   
    20    9   14 ar   
    21   10   11 ar   
    22   10   81 1    
    23   11   12 ar   
    24   11   71 1    
    25   12   13 ar   
    26   12   82 1    
    27   13   14 ar   
    28   13   15 1    
    29   14   83 1    
    30   15   16 1    
    31   15   84 1    
    32   15   85 1    
    33   16   17 1    
    34   17   18 1    
    35   17   86 1    
    36   17   87 1    
    37   18   19 1    
    38   18   37 1    
    39   18   88 1    
    40   19   20 am   BACKBONE|DICT|INTERRES
    41   19   89 1    
    42   20   21 2    
    43   20   22 1    
    44   22   23 1    
    45   22   24 1    
    46   22   90 1    
    47   23   91 1    
    48   23   92 1    
    49   23   93 1    
    50   24   25 am   BACKBONE|DICT|INTERRES
    51   24   94 1    
    52   25   26 2    
    53   25   27 1    
    54   27   28 1    
    55   27   29 1    
    56   27   95 1    
    57   28   96 1    
    58   28   97 1    
    59   28   98 1    
    60   29   30 am   BACKBONE|DICT|INTERRES
    61   29   99 1    
    62   30   31 2    
    63   30   32 1    
    64   32   33 1    
    65   32   34 1    
    66   32  100 1    
    67   33  101 1    
    68   33  102 1    
    69   33  103 1    
    70   34   35 am   BACKBONE|DICT|INTERRES
    71   34  104 1    
    72   35   36 2    
    73   37   38 2    
    74   37   39 am   BACKBONE|DICT|INTERRES
    75   39   40 1    
    76   39  105 1    
    77   40   41 1    
    78   40   42 1    
    79   40  106 1    
    80   41  107 1    
    81   41  108 1    
    82   41  109 1    
    83   42   43 2    
    84   42   44 am   BACKBONE|DICT|INTERRES
    85   44   45 1    
    86   44  110 1    
    87   45   46 1    
    88   45   47 1    
    89   45  111 1    
    90   46  112 1    
    91   46  113 1    
    92   46  114 1    
    93   47   48 2    
    94   47   49 am   BACKBONE|DICT|INTERRES
    95   49   50 1    
    96   49  115 1    
    97   50   51 1    
    98   50   52 1    
    99   50  116 1    
   100   51  117 1    
   101   51  118 1    
   102   51  119 1    
   103   52   53 2    
   104   52   54 am   BACKBONE|DICT|INTERRES
   105   54   55 1    
   106   54  120 1    
   107   55   56 1    
   108   55   57 1    
   109   55  121 1    
   110   56  122 1    
   111   56  123 1    
   112   56  124 1    
   113   57   58 2    
   114   57   59 am   BACKBONE|DICT|INTERRES
   115   59   60 1    
   116   59  125 1    
   117   60   61 1    
   118   60   62 1    
   119   60  126 1    
   120   61  127 1    
   121   61  128 1    
   122   61  129 1    
   123   62   63 2    
   124   62   64 am   BACKBONE|DICT|INTERRES
   125   64   65 1    
   126   64  130 1    
   127   65   66 1    
   128   65   69 1    
   129   65  131 1    
   130   66   67 am   BACKBONE|DICT|INTERRES
   131   66   68 2    
   132   67  132 1    
   133   67  133 1    
   134   69   70 1    
   135   69  134 1    
   136   69  135 1    
   137   70   71 1    
   138   71  136 1    
   139   71  137 1    
@<TRIPOS>SUBSTRUCTURE
     1 UNK         1 GROUP             0       ****    0 ROOT    
