@<TRIPOS>MOLECULE
3R137
137   139    1
SMALL
USER_CHARGES


@<TRIPOS>ATOM
      1 CA         26.6709    1.8310   -2.6960 C.3       0 UNK        -0.2020 
      2 C          26.7392    0.3124   -2.7298 C.2       0 UNK         0.4855 
      3 O          26.4157   -0.2864   -3.7568 O.2       0 UNK        -0.5197 
      4 N          27.1653   -0.3080   -1.6203 N.am      1 UNK        -0.4892 
      5 CA         27.2166   -1.7612   -1.4186 C.3       1 UNK         0.0835 
      6 C6         27.9006   -2.1439   -0.0830 C.3       12 UNK        -0.0855 
      7 S7         29.6397   -1.6034    0.0255 S.3       12 UNK        -0.2931 
      8 C8         30.5391   -3.1822   -0.1227 C.3       12 UNK         0.0378 
      9 C9         30.8079   -3.5335   -1.5778 C.ar      12 UNK        -0.0802 
     10 C10        32.0082   -3.1368   -2.1749 C.ar      12 UNK        -0.0944 
     11 C11        32.2695   -3.4371   -3.5139 C.ar      12 UNK        -0.0787 
     12 C12        31.3168   -4.1350   -4.2596 C.ar      12 UNK        -0.0862 
     13 C13        30.1048   -4.5251   -3.6789 C.ar      12 UNK        -0.0733 
     14 C14        29.8646   -4.2417   -2.3301 C.ar      12 UNK        -0.0832 
     15 C15        29.0431   -5.2149   -4.5285 C.3       12 UNK         0.0240 
     16 S16        27.5929   -4.1475   -4.8393 S.3       12 UNK        -0.2522 
     17 C17        28.3612   -2.5632   -5.3118 C.3       12 UNK        -0.0967 
     18 CA         27.6980   -1.8666   -6.5268 C.3       5 UNK         0.0660 
     19 N          26.2885   -1.5326   -6.3130 N.am      5 UNK        -0.4015 
     20 C          25.3562   -1.5907   -7.2743 C.2       4 UNK         0.4946 
     21 O          25.5225   -2.1614   -8.3539 O.2       4 UNK        -0.5353 
     22 CA         24.0275   -0.8718   -6.9980 C.3       4 UNK         0.0277 
     23 CB         22.9543   -1.1357   -8.0736 C.3       4 UNK        -0.1981 
     24 N          23.4960   -1.2355   -5.6893 N.am      4 UNK        -0.4209 
     25 C          22.8597   -0.4078   -4.8552 C.2       3 UNK         0.4942 
     26 O          22.7229    0.7981   -5.0645 O.2       3 UNK        -0.5208 
     27 CA         22.2500   -1.0108   -3.5754 C.3       3 UNK         0.0250 
     28 CB         20.8083   -1.4919   -3.8306 C.3       3 UNK        -0.1990 
     29 N          23.0534   -2.0570   -2.9279 N.am      3 UNK        -0.4232 
     30 C          23.3926   -3.2779   -3.3642 C.2       2 UNK         0.4993 
     31 O          23.0635   -3.7321   -4.4614 O.2       2 UNK        -0.5286 
     32 CA         24.3075   -4.0936   -2.4306 C.3       2 UNK         0.0209 
     33 CB         24.5556   -5.5250   -2.9429 C.3       2 UNK        -0.1931 
     34 N          25.5979   -3.4243   -2.2398 N.am      2 UNK        -0.4546 
     35 C          25.7980   -2.3591   -1.4534 C.2       1 UNK         0.5154 
     36 O          24.9101   -1.8510   -0.7622 O.2       1 UNK        -0.5181 
     37 C          28.4038   -0.5504   -6.9077 C.2       5 UNK         0.5014 
     38 O          28.2747   -0.1048   -8.0490 O.2       5 UNK        -0.5248 
     39 N          29.0790    0.0840   -5.9349 N.am      6 UNK        -0.4434 
     40 CA         29.8315    1.3367   -6.0678 C.3       6 UNK         0.0363 
     41 CB         30.4817    1.6795   -4.7179 C.3       6 UNK        -0.1936 
     42 C          29.0081    2.5277   -6.5902 C.2       6 UNK         0.5081 
     43 O          29.5751    3.4306   -7.2047 O.2       6 UNK        -0.5248 
     44 N          27.6887    2.4981   -6.3569 N.am      7 UNK        -0.4718 
     45 CA         26.7267    3.4664   -6.8847 C.3       7 UNK         0.0273 
     46 CB         25.4068    3.3374   -6.1068 C.3       7 UNK        -0.1935 
     47 C          26.4811    3.3280   -8.4001 C.2       7 UNK         0.5018 
     48 O          26.0619    4.3059   -9.0205 O.2       7 UNK        -0.5186 
     49 N          26.7333    2.1392   -8.9681 N.am      8 UNK        -0.4240 
     50 CA         26.6180    1.8653  -10.4009 C.3       8 UNK         0.0235 
     51 CB         26.0173    0.4676  -10.6201 C.3       8 UNK        -0.2000 
     52 C          27.9821    1.9891  -11.0925 C.2       8 UNK         0.4941 
     53 O          28.0688    2.6466  -12.1306 O.2       8 UNK        -0.5273 
     54 N          29.0217    1.3782  -10.5098 N.am      9 UNK        -0.4262 
     55 CA         30.3996    1.4390  -10.9921 C.3       9 UNK         0.0264 
     56 CB         30.6310    0.3854  -12.0907 C.3       9 UNK        -0.1955 
     57 C          31.3361    1.2166   -9.8028 C.2       9 UNK         0.5031 
     58 O          31.1556    0.2394   -9.0751 O.2       9 UNK        -0.5390 
     59 N          32.3064    2.1225   -9.6245 N.am      10 UNK        -0.4204 
     60 CA         33.2522    2.1423   -8.5044 C.3       10 UNK         0.0237 
     61 CB         34.1377    3.3942   -8.6191 C.3       10 UNK        -0.1985 
     62 C          34.1236    0.8768   -8.4104 C.2       10 UNK         0.4970 
     63 O          34.4793    0.2938   -9.4375 O.2       10 UNK        -0.4914 
     64 N          34.4739    0.5087   -7.1729 N.am      11 UNK        -0.4285 
     65 CA         35.2840   -0.6725   -6.8316 C.3       11 UNK         0.1007 
     66 C          36.7758   -0.6014   -7.2746 C.2       11 UNK         0.5703 
     67 N          37.3095    0.5574   -7.6436 N.am      11 UNK        -0.7361 
     68 O          37.4604   -1.6218   -7.2858 O.2       11 UNK        -0.4986 
     69 C69        35.1817   -1.0050   -5.3191 C.3       12 UNK        -0.0947 
     70 S70        33.4665   -1.2874   -4.7603 S.3       12 UNK        -0.2240 
     71 C71        33.5768   -2.9976   -4.1532 C.3       12 UNK         0.0194 
     72 H72        25.6523    2.1602   -2.8997 H         1 UNK         0.0906 
     73 H73        27.3254    2.2578   -3.4542 H         1 UNK         0.0906 
     74 H74        26.9684    2.2315   -1.7272 H         1 UNK         0.0906 
     75 H75        27.4204    0.2425   -0.8128 H         1 UNK         0.3140 
     76 H76        27.7961   -2.1893   -2.2362 H         1 UNK         0.1085 
     77 H77        27.3637   -1.6993    0.7578 H         1 UNK         0.0836 
     78 H78        27.8502   -3.2226    0.0772 H         1 UNK         0.0836 
     79 H79        31.4852   -3.0905    0.4132 H         1 UNK         0.0731 
     80 H80        29.9960   -3.9871    0.3745 H         1 UNK         0.0731 
     81 H81        32.7383   -2.5836   -1.5995 H         1 UNK         0.1312 
     82 H82        31.5102   -4.3512   -5.3016 H         1 UNK         0.1406 
     83 H83        28.9322   -4.5483   -1.8768 H         1 UNK         0.1631 
     84 H84        29.4595   -5.5260   -5.4879 H         1 UNK         0.0717 
     85 H85        28.7127   -6.1268   -4.0292 H         1 UNK         0.0717 
     86 H86        28.3524   -1.9302   -4.4263 H         1 UNK         0.0934 
     87 H87        29.4099   -2.7366   -5.5531 H         1 UNK         0.0934 
     88 H88        27.7995   -2.5399   -7.3807 H         1 UNK         0.0739 
     89 H89        26.0808   -1.0633   -5.4333 H         1 UNK         0.3093 
     90 H90        24.2620    0.1941   -7.0148 H         1 UNK         0.0818 
     91 H91        22.0501   -0.5581   -7.8813 H         1 UNK         0.0819 
     92 H92        23.3086   -0.8557   -9.0657 H         1 UNK         0.0819 
     93 H93        22.6770   -2.1898   -8.1107 H         1 UNK         0.0819 
     94 H94        23.5336   -2.2210   -5.4344 H         1 UNK         0.3041 
     95 H95        22.1990   -0.1975   -2.8496 H         1 UNK         0.0784 
     96 H96        20.1917   -0.6814   -4.2216 H         1 UNK         0.0793 
     97 H97        20.7717   -2.3044   -4.5570 H         1 UNK         0.0793 
     98 H98        20.3384   -1.8419   -2.9115 H         1 UNK         0.0793 
     99 H99        23.4703   -1.7825   -2.0413 H         1 UNK         0.3024 
    100 H100       23.8003   -4.1703   -1.4657 H         1 UNK         0.1171 
    101 H101       25.1780   -6.0927   -2.2511 H         1 UNK         0.0786 
    102 H102       23.6154   -6.0674   -3.0515 H         1 UNK         0.0786 
    103 H103       25.0463   -5.5292   -3.9167 H         1 UNK         0.0786 
    104 H104       26.3515   -3.7478   -2.8327 H         1 UNK         0.2977 
    105 H105       29.0990   -0.3416   -5.0204 H         1 UNK         0.3127 
    106 H106       30.6316    1.1575   -6.7839 H         1 UNK         0.0770 
    107 H107       29.7381    1.8325   -3.9355 H         1 UNK         0.0814 
    108 H108       31.0713    2.5946   -4.7905 H         1 UNK         0.0814 
    109 H109       31.1569    0.8888   -4.3898 H         1 UNK         0.0814 
    110 H110       27.3146    1.7150   -5.8414 H         1 UNK         0.2983 
    111 H111       27.1251    4.4693   -6.7150 H         1 UNK         0.0947 
    112 H112       24.9853    2.3348   -6.1813 H         1 UNK         0.0806 
    113 H113       24.6581    4.0337   -6.4874 H         1 UNK         0.0806 
    114 H114       25.5459    3.5649   -5.0502 H         1 UNK         0.0806 
    115 H115       27.1471    1.4005   -8.4065 H         1 UNK         0.3000 
    116 H116       25.9429    2.5883  -10.8641 H         1 UNK         0.0850 
    117 H117       25.9128    0.2507  -11.6839 H         1 UNK         0.0810 
    118 H118       25.0258    0.3926  -10.1755 H         1 UNK         0.0810 
    119 H119       26.6371   -0.3185  -10.1873 H         1 UNK         0.0810 
    120 H120       28.8845    0.8483   -9.6499 H         1 UNK         0.3040 
    121 H121       30.5889    2.4313  -11.4076 H         1 UNK         0.0766 
    122 H122       29.9952    0.5669  -12.9572 H         1 UNK         0.0812 
    123 H123       30.4245   -0.6226  -11.7285 H         1 UNK         0.0812 
    124 H124       31.6652    0.4035  -12.4368 H         1 UNK         0.0812 
    125 H125       32.3970    2.8701  -10.2968 H         1 UNK         0.3205 
    126 H126       32.6621    2.2224   -7.5892 H         1 UNK         0.0754 
    127 H127       34.8290    3.4660   -7.7783 H         1 UNK         0.0769 
    128 H128       33.5394    4.3058   -8.6193 H         1 UNK         0.0769 
    129 H129       34.7349    3.3831   -9.5321 H         1 UNK         0.0769 
    130 H130       34.1495    1.0520   -6.3871 H         1 UNK         0.2981 
    131 H131       34.8559   -1.5143   -7.3794 H         1 UNK         0.0541 
    132 H132       38.2751    0.5864   -7.9307 H         1 UNK         0.3459 
    133 H133       36.7572    1.3991   -7.6414 H         1 UNK         0.3459 
    134 H134       35.7800   -1.8871   -5.0831 H         1 UNK         0.0612 
    135 H135       35.5996   -0.1915   -4.7233 H         1 UNK         0.0612 
    136 H136       34.3857   -3.0732   -3.4247 H         1 UNK         0.0624 
    137 H137       33.8393   -3.6588   -4.9806 H         1 UNK         0.0624 
@<TRIPOS>BOND
     1    1    2 1    
     2    1   72 1    
     3    1   73 1    
     4    1   74 1    
     5    2    3 2    
     6    2    4 am   BACKBONE|DICT|INTERRES
     7    4    5 1    
     8    4   75 1    
     9    5    6 1    
    10    5   35 1    
    11    5   76 1    
    12    6    7 1    
    13    6   77 1    
    14    6   78 1    
    15    7    8 1    
    16    8    9 1    
    17    8   79 1    
    18    8   80 1    
    19    9   10 ar   
    20    9   14 ar   
    21   10   11 ar   
    22   10   81 1    
    23   11   12 ar   
    24   11   71 1    
    25   12   13 ar   
    26   12   82 1    
    27   13   14 ar   
    28   13   15 1    
    29   14   83 1    
    30   15   16 1    
    31   15   84 1    
    32   15   85 1    
    33   16   17 1    
    34   17   18 1    
    35   17   86 1    
    36   17   87 1    
    37   18   19 1    
    38   18   37 1    
    39   18   88 1    
    40   19   20 am   BACKBONE|DICT|INTERRES
    41   19   89 1    
    42   20   21 2    
    43   20   22 1    
    44   22   23 1    
    45   22   24 1    
    46   22   90 1    
    47   23   91 1    
    48   23   92 1    
    49   23   93 1    
    50   24   25 am   BACKBONE|DICT|INTERRES
    51   24   94 1    
    52   25   26 2    
    53   25   27 1    
    54   27   28 1    
    55   27   29 1    
    56   27   95 1    
    57   28   96 1    
    58   28   97 1    
    59   28   98 1    
    60   29   30 am   BACKBONE|DICT|INTERRES
    61   29   99 1    
    62   30   31 2    
    63   30   32 1    
    64   32   33 1    
    65   32   34 1    
    66   32  100 1    
    67   33  101 1    
    68   33  102 1    
    69   33  103 1    
    70   34   35 am   BACKBONE|DICT|INTERRES
    71   34  104 1    
    72   35   36 2    
    73   37   38 2    
    74   37   39 am   BACKBONE|DICT|INTERRES
    75   39   40 1    
    76   39  105 1    
    77   40   41 1    
    78   40   42 1    
    79   40  106 1    
    80   41  107 1    
    81   41  108 1    
    82   41  109 1    
    83   42   43 2    
    84   42   44 am   BACKBONE|DICT|INTERRES
    85   44   45 1    
    86   44  110 1    
    87   45   46 1    
    88   45   47 1    
    89   45  111 1    
    90   46  112 1    
    91   46  113 1    
    92   46  114 1    
    93   47   48 2    
    94   47   49 am   BACKBONE|DICT|INTERRES
    95   49   50 1    
    96   49  115 1    
    97   50   51 1    
    98   50   52 1    
    99   50  116 1    
   100   51  117 1    
   101   51  118 1    
   102   51  119 1    
   103   52   53 2    
   104   52   54 am   BACKBONE|DICT|INTERRES
   105   54   55 1    
   106   54  120 1    
   107   55   56 1    
   108   55   57 1    
   109   55  121 1    
   110   56  122 1    
   111   56  123 1    
   112   56  124 1    
   113   57   58 2    
   114   57   59 am   BACKBONE|DICT|INTERRES
   115   59   60 1    
   116   59  125 1    
   117   60   61 1    
   118   60   62 1    
   119   60  126 1    
   120   61  127 1    
   121   61  128 1    
   122   61  129 1    
   123   62   63 2    
   124   62   64 am   BACKBONE|DICT|INTERRES
   125   64   65 1    
   126   64  130 1    
   127   65   66 1    
   128   65   69 1    
   129   65  131 1    
   130   66   67 am   BACKBONE|DICT|INTERRES
   131   66   68 2    
   132   67  132 1    
   133   67  133 1    
   134   69   70 1    
   135   69  134 1    
   136   69  135 1    
   137   70   71 1    
   138   71  136 1    
   139   71  137 1    
@<TRIPOS>SUBSTRUCTURE
     1 UNK         1 GROUP             0       ****    0 ROOT    
