@<TRIPOS>MOLECULE
3R137
137   139    1
SMALL
USER_CHARGES


@<TRIPOS>ATOM
      1 CA         29.9311    0.4497    0.3446 C.3       0 UNK        -0.2020 
      2 C          29.1165   -0.2031   -0.7611 C.2       0 UNK         0.4855 
      3 O          27.8927   -0.2841   -0.6491 O.2       0 UNK        -0.5197 
      4 N          29.7845   -0.6454   -1.8387 N.am      1 UNK        -0.4892 
      5 CA         29.2162   -1.3787   -2.9860 C.3       1 UNK         0.0835 
      6 C6         28.7888   -2.8258   -2.6135 C.3       12 UNK        -0.0855 
      7 S7         30.2039   -3.8380   -2.0647 S.3       12 UNK        -0.2931 
      8 C8         29.9446   -5.3812   -3.0000 C.3       12 UNK         0.0378 
      9 C9         30.1171   -5.1980   -4.5032 C.ar      12 UNK        -0.0802 
     10 C10        31.3751   -4.8990   -5.0337 C.ar      12 UNK        -0.0944 
     11 C11        31.5525   -4.7747   -6.4144 C.ar      12 UNK        -0.0787 
     12 C12        30.4560   -4.9431   -7.2665 C.ar      12 UNK        -0.0862 
     13 C13        29.1897   -5.2438   -6.7527 C.ar      12 UNK        -0.0733 
     14 C14        29.0303   -5.3729   -5.3673 C.ar      12 UNK        -0.0832 
     15 C15        28.0288   -5.5017   -7.7128 C.3       12 UNK         0.0240 
     16 S16        26.4352   -4.7917   -7.1782 S.3       12 UNK        -0.2522 
     17 C17        26.7240   -3.0167   -7.4673 C.3       12 UNK        -0.0967 
     18 CA         25.4822   -2.1493   -7.1265 C.3       5 UNK         0.0660 
     19 N          25.1424   -2.2379   -5.7135 N.am      5 UNK        -0.4015 
     20 C          24.0070   -2.7157   -5.1972 C.2       4 UNK         0.4946 
     21 O          23.0417   -3.0804   -5.8696 O.2       4 UNK        -0.5353 
     22 CA         23.9402   -2.8069   -3.6670 C.3       4 UNK         0.0277 
     23 CB         24.7874   -3.9894   -3.1650 C.3       4 UNK        -0.1981 
     24 N          24.4150   -1.5724   -3.0384 N.am      4 UNK        -0.4209 
     25 C          23.6343   -0.6891   -2.4007 C.2       3 UNK         0.4942 
     26 O          22.4162   -0.8191   -2.2705 O.2       3 UNK        -0.5208 
     27 CA         24.3158    0.5458   -1.7813 C.3       3 UNK         0.0250 
     28 CB         24.5416    0.3322   -0.2759 C.3       3 UNK        -0.1990 
     29 N          25.5914    0.8868   -2.4148 N.am      3 UNK        -0.4232 
     30 C          25.7027    1.4421   -3.6316 C.2       2 UNK         0.4993 
     31 O          24.7370    1.7790   -4.3159 O.2       2 UNK        -0.5286 
     32 CA         27.1238    1.6566   -4.1896 C.3       2 UNK         0.0209 
     33 CB         27.5663    3.1041   -3.9128 C.3       2 UNK        -0.1931 
     34 N          28.1381    0.7364   -3.6583 N.am      2 UNK        -0.4546 
     35 C          28.0779   -0.6044   -3.6901 C.2       1 UNK         0.5154 
     36 O          27.1374   -1.2223   -4.1889 O.2       1 UNK        -0.5181 
     37 C          25.7287   -0.6642   -7.4233 C.2       5 UNK         0.5014 
     38 O          26.8805   -0.2366   -7.4936 O.2       5 UNK        -0.5248 
     39 N          24.6478    0.1126   -7.5834 N.am      6 UNK        -0.4434 
     40 CA         24.6932    1.5599   -7.8433 C.3       6 UNK         0.0363 
     41 CB         23.2620    2.1196   -7.8639 C.3       6 UNK        -0.1936 
     42 C          25.4471    1.9511   -9.1304 C.2       6 UNK         0.5081 
     43 O          26.0223    3.0374   -9.1912 O.2       6 UNK        -0.5248 
     44 N          25.4613    1.0469  -10.1196 N.am      7 UNK        -0.4718 
     45 CA         26.2308    1.1691  -11.3609 C.3       7 UNK         0.0273 
     46 CB         25.6553    0.1893  -12.3972 C.3       7 UNK        -0.1935 
     47 C          27.7450    0.9327  -11.1811 C.2       7 UNK         0.5018 
     48 O          28.5065    1.2654  -12.0903 O.2       7 UNK        -0.5186 
     49 N          28.1589    0.3666  -10.0390 N.am      8 UNK        -0.4240 
     50 CA         29.5472    0.0764   -9.6842 C.3       8 UNK         0.0235 
     51 CB         29.7579   -1.4502   -9.6547 C.3       8 UNK        -0.2000 
     52 C          29.8736    0.7456   -8.3406 C.2       8 UNK         0.4941 
     53 O          30.3973    0.0971   -7.4344 O.2       8 UNK        -0.5273 
     54 N          29.5382    2.0376   -8.2206 N.am      9 UNK        -0.4262 
     55 CA         29.8305    2.8517   -7.0412 C.3       9 UNK         0.0264 
     56 CB         29.1154    4.2063   -7.1646 C.3       9 UNK        -0.1955 
     57 C          31.3457    3.0392   -6.8464 C.2       9 UNK         0.5031 
     58 O          32.0597    3.2536   -7.8297 O.2       9 UNK        -0.5390 
     59 N          31.7930    2.9540   -5.5839 N.am      10 UNK        -0.4204 
     60 CA         33.1952    2.9762   -5.1410 C.3       10 UNK         0.0237 
     61 CB         33.8287    4.3653   -5.3769 C.3       10 UNK        -0.1985 
     62 C          34.0252    1.8176   -5.7369 C.2       10 UNK         0.4970 
     63 O          35.1482    2.0344   -6.1980 O.2       10 UNK        -0.4914 
     64 N          33.4390    0.6119   -5.7278 N.am      11 UNK        -0.4285 
     65 CA         34.0291   -0.6347   -6.2381 C.3       11 UNK         0.1007 
     66 C          35.3569   -1.0388   -5.5349 C.2       11 UNK         0.5703 
     67 N          36.2643   -1.6905   -6.2496 N.am      11 UNK        -0.7361 
     68 O          35.5505   -0.8054   -4.3426 O.2       11 UNK        -0.4986 
     69 C69        32.9930   -1.7941   -6.1976 C.3       12 UNK        -0.0947 
     70 S70        33.0780   -2.8342   -7.6919 S.3       12 UNK        -0.2240 
     71 C71        32.9371   -4.5051   -6.9893 C.3       12 UNK         0.0194 
     72 H72        29.7933   -0.0931    1.2793 H         1 UNK         0.0906 
     73 H73        30.9962    0.4637    0.1148 H         1 UNK         0.0906 
     74 H74        29.6019    1.4773    0.4957 H         1 UNK         0.0906 
     75 H75        30.7900   -0.5436   -1.8586 H         1 UNK         0.3140 
     76 H76        30.0079   -1.4532   -3.7337 H         1 UNK         0.1085 
     77 H77        28.3246   -3.3205   -3.4673 H         1 UNK         0.0836 
     78 H78        28.0342   -2.8177   -1.8252 H         1 UNK         0.0836 
     79 H79        30.6610   -6.1261   -2.6508 H         1 UNK         0.0731 
     80 H80        28.9555   -5.7778   -2.7647 H         1 UNK         0.0731 
     81 H81        32.2186   -4.7776   -4.3677 H         1 UNK         0.1312 
     82 H82        30.5987   -4.8578   -8.3354 H         1 UNK         0.1406 
     83 H83        28.0599   -5.6269   -4.9629 H         1 UNK         0.1631 
     84 H84        27.9061   -6.5806   -7.8150 H         1 UNK         0.0717 
     85 H85        28.2609   -5.1245   -8.7101 H         1 UNK         0.0717 
     86 H86        26.9984   -2.8854   -8.5154 H         1 UNK         0.0934 
     87 H87        27.5902   -2.7079   -6.8766 H         1 UNK         0.0934 
     88 H88        24.6485   -2.4812   -7.7488 H         1 UNK         0.0739 
     89 H89        25.8792   -1.9088   -5.0879 H         1 UNK         0.3093 
     90 H90        22.9009   -3.0006   -3.3931 H         1 UNK         0.0818 
     91 H91        25.8438   -3.8664   -3.4061 H         1 UNK         0.0819 
     92 H92        24.7028   -4.1051   -2.0844 H         1 UNK         0.0819 
     93 H93        24.4575   -4.9252   -3.6182 H         1 UNK         0.0819 
     94 H94        25.4007   -1.3586   -3.1426 H         1 UNK         0.3041 
     95 H95        23.6362    1.3918   -1.9057 H         1 UNK         0.0784 
     96 H96        23.5991    0.1329    0.2361 H         1 UNK         0.0793 
     97 H97        25.2022   -0.5144   -0.0835 H         1 UNK         0.0793 
     98 H98        24.9829    1.2137    0.1893 H         1 UNK         0.0793 
     99 H99        26.4338    0.6255   -1.9117 H         1 UNK         0.3024 
    100 H100       27.0770    1.4988   -5.2697 H         1 UNK         0.1171 
    101 H101       28.5688    3.3069   -4.2845 H         1 UNK         0.0786 
    102 H102       27.5611    3.3275   -2.8450 H         1 UNK         0.0786 
    103 H103       26.8934    3.8143   -4.3960 H         1 UNK         0.0786 
    104 H104       28.9202    1.1530   -3.1751 H         1 UNK         0.2977 
    105 H105       23.7318   -0.3034   -7.4860 H         1 UNK         0.3127 
    106 H106       25.2267    2.0237   -7.0110 H         1 UNK         0.0770 
    107 H107       22.6607    1.6663   -8.6532 H         1 UNK         0.0814 
    108 H108       23.2674    3.1970   -8.0354 H         1 UNK         0.0814 
    109 H109       22.7576    1.9492   -6.9120 H         1 UNK         0.0814 
    110 H110       24.9505    0.1866   -9.9840 H         1 UNK         0.2983 
    111 H111       26.1070    2.1848  -11.7439 H         1 UNK         0.0947 
    112 H112       26.1774    0.2779  -13.3512 H         1 UNK         0.0806 
    113 H113       24.6004    0.3874  -12.5893 H         1 UNK         0.0806 
    114 H114       25.7501   -0.8470  -12.0698 H         1 UNK         0.0806 
    115 H115       27.4859    0.1882   -9.2977 H         1 UNK         0.3000 
    116 H116       30.2316    0.5017  -10.4214 H         1 UNK         0.0850 
    117 H117       30.8043   -1.6935   -9.4674 H         1 UNK         0.0810 
    118 H118       29.4816   -1.9106  -10.6031 H         1 UNK         0.0810 
    119 H119       29.1714   -1.9211   -8.8655 H         1 UNK         0.0810 
    120 H120       29.1115    2.5049   -9.0072 H         1 UNK         0.3040 
    121 H121       29.4276    2.3180   -6.1794 H         1 UNK         0.0766 
    122 H122       29.4601    4.7653   -8.0356 H         1 UNK         0.0812 
    123 H123       28.0361    4.0777   -7.2534 H         1 UNK         0.0812 
    124 H124       29.2971    4.8275   -6.2866 H         1 UNK         0.0812 
    125 H125       31.1148    2.7974   -4.8518 H         1 UNK         0.3205 
    126 H126       33.1790    2.8073   -4.0628 H         1 UNK         0.0754 
    127 H127       34.8248    4.4200   -4.9356 H         1 UNK         0.0769 
    128 H128       33.2308    5.1560   -4.9233 H         1 UNK         0.0769 
    129 H129       33.9325    4.5909   -6.4389 H         1 UNK         0.0769 
    130 H130       32.5062    0.5326   -5.3537 H         1 UNK         0.2981 
    131 H131       34.2713   -0.4151   -7.2805 H         1 UNK         0.0541 
    132 H132       37.1254   -1.9758   -5.8093 H         1 UNK         0.3459 
    133 H133       36.0980   -1.9111   -7.2192 H         1 UNK         0.3459 
    134 H134       31.9731   -1.4140   -6.1480 H         1 UNK         0.0612 
    135 H135       33.1076   -2.4054   -5.2998 H         1 UNK         0.0612 
    136 H136       33.7119   -4.6443   -6.2333 H         1 UNK         0.0624 
    137 H137       33.1443   -5.2327   -7.7753 H         1 UNK         0.0624 
@<TRIPOS>BOND
     1    1    2 1    
     2    1   72 1    
     3    1   73 1    
     4    1   74 1    
     5    2    3 2    
     6    2    4 am   BACKBONE|DICT|INTERRES
     7    4    5 1    
     8    4   75 1    
     9    5    6 1    
    10    5   35 1    
    11    5   76 1    
    12    6    7 1    
    13    6   77 1    
    14    6   78 1    
    15    7    8 1    
    16    8    9 1    
    17    8   79 1    
    18    8   80 1    
    19    9   10 ar   
    20    9   14 ar   
    21   10   11 ar   
    22   10   81 1    
    23   11   12 ar   
    24   11   71 1    
    25   12   13 ar   
    26   12   82 1    
    27   13   14 ar   
    28   13   15 1    
    29   14   83 1    
    30   15   16 1    
    31   15   84 1    
    32   15   85 1    
    33   16   17 1    
    34   17   18 1    
    35   17   86 1    
    36   17   87 1    
    37   18   19 1    
    38   18   37 1    
    39   18   88 1    
    40   19   20 am   BACKBONE|DICT|INTERRES
    41   19   89 1    
    42   20   21 2    
    43   20   22 1    
    44   22   23 1    
    45   22   24 1    
    46   22   90 1    
    47   23   91 1    
    48   23   92 1    
    49   23   93 1    
    50   24   25 am   BACKBONE|DICT|INTERRES
    51   24   94 1    
    52   25   26 2    
    53   25   27 1    
    54   27   28 1    
    55   27   29 1    
    56   27   95 1    
    57   28   96 1    
    58   28   97 1    
    59   28   98 1    
    60   29   30 am   BACKBONE|DICT|INTERRES
    61   29   99 1    
    62   30   31 2    
    63   30   32 1    
    64   32   33 1    
    65   32   34 1    
    66   32  100 1    
    67   33  101 1    
    68   33  102 1    
    69   33  103 1    
    70   34   35 am   BACKBONE|DICT|INTERRES
    71   34  104 1    
    72   35   36 2    
    73   37   38 2    
    74   37   39 am   BACKBONE|DICT|INTERRES
    75   39   40 1    
    76   39  105 1    
    77   40   41 1    
    78   40   42 1    
    79   40  106 1    
    80   41  107 1    
    81   41  108 1    
    82   41  109 1    
    83   42   43 2    
    84   42   44 am   BACKBONE|DICT|INTERRES
    85   44   45 1    
    86   44  110 1    
    87   45   46 1    
    88   45   47 1    
    89   45  111 1    
    90   46  112 1    
    91   46  113 1    
    92   46  114 1    
    93   47   48 2    
    94   47   49 am   BACKBONE|DICT|INTERRES
    95   49   50 1    
    96   49  115 1    
    97   50   51 1    
    98   50   52 1    
    99   50  116 1    
   100   51  117 1    
   101   51  118 1    
   102   51  119 1    
   103   52   53 2    
   104   52   54 am   BACKBONE|DICT|INTERRES
   105   54   55 1    
   106   54  120 1    
   107   55   56 1    
   108   55   57 1    
   109   55  121 1    
   110   56  122 1    
   111   56  123 1    
   112   56  124 1    
   113   57   58 2    
   114   57   59 am   BACKBONE|DICT|INTERRES
   115   59   60 1    
   116   59  125 1    
   117   60   61 1    
   118   60   62 1    
   119   60  126 1    
   120   61  127 1    
   121   61  128 1    
   122   61  129 1    
   123   62   63 2    
   124   62   64 am   BACKBONE|DICT|INTERRES
   125   64   65 1    
   126   64  130 1    
   127   65   66 1    
   128   65   69 1    
   129   65  131 1    
   130   66   67 am   BACKBONE|DICT|INTERRES
   131   66   68 2    
   132   67  132 1    
   133   67  133 1    
   134   69   70 1    
   135   69  134 1    
   136   69  135 1    
   137   70   71 1    
   138   71  136 1    
   139   71  137 1    
@<TRIPOS>SUBSTRUCTURE
     1 UNK         1 GROUP             0       ****    0 ROOT    
