@<TRIPOS>MOLECULE
3R137
137   139    1
SMALL
USER_CHARGES


@<TRIPOS>ATOM
      1 CA         27.0675   -1.0333    3.3471 C.3       0 UNK        -0.2020 
      2 C          26.7569   -1.6710    2.0012 C.2       0 UNK         0.4855 
      3 O          26.0915   -2.7055    1.9575 O.2       0 UNK        -0.5197 
      4 N          27.2307   -1.0562    0.9068 N.am      1 UNK        -0.4892 
      5 CA         27.0533   -1.4981   -0.4865 C.3       1 UNK         0.0835 
      6 C6         27.6869   -2.8935   -0.7578 C.3       12 UNK        -0.0855 
      7 S7         28.2550   -3.0796   -2.4805 S.3       12 UNK        -0.2931 
      8 C8         30.0024   -3.5512   -2.2661 C.3       12 UNK         0.0378 
      9 C9         30.6621   -3.7815   -3.6184 C.ar      12 UNK        -0.0802 
     10 C10        31.7508   -3.0076   -4.0339 C.ar      12 UNK        -0.0944 
     11 C11        32.3125   -3.1946   -5.3023 C.ar      12 UNK        -0.0787 
     12 C12        31.7755   -4.1649   -6.1566 C.ar      12 UNK        -0.0862 
     13 C13        30.6870   -4.9411   -5.7503 C.ar      12 UNK        -0.0733 
     14 C14        30.1545   -4.7617   -4.4727 C.ar      12 UNK        -0.0832 
     15 C15        30.0676   -5.9701   -6.6809 C.3       12 UNK         0.0240 
     16 S16        28.3147   -5.5975   -7.0140 S.3       12 UNK        -0.2522 
     17 C17        28.4234   -4.2690   -8.2627 C.3       12 UNK        -0.0967 
     18 CA         27.8408   -2.8889   -7.8435 C.3       5 UNK         0.0660 
     19 N          26.6836   -2.9615   -6.9409 N.am      5 UNK        -0.4015 
     20 C          25.8583   -1.9388   -6.6703 C.2       4 UNK         0.4946 
     21 O          26.0199   -0.8138   -7.1531 O.2       4 UNK        -0.5353 
     22 CA         24.6801   -2.2038   -5.7067 C.3       4 UNK         0.0277 
     23 CB         24.8465   -3.4850   -4.8640 C.3       4 UNK        -0.1981 
     24 N          24.4725   -1.0647   -4.8071 N.am      4 UNK        -0.4209 
     25 C          23.7953    0.0506   -5.1216 C.2       3 UNK         0.4942 
     26 O          23.1528    0.1864   -6.1651 O.2       3 UNK        -0.5208 
     27 CA         23.8663    1.2196   -4.1142 C.3       3 UNK         0.0250 
     28 CB         22.7614    2.2759   -4.3332 C.3       3 UNK        -0.1990 
     29 N          23.9191    0.7971   -2.7096 N.am      3 UNK        -0.4232 
     30 C          22.9966    0.0955   -2.0334 C.2       2 UNK         0.4993 
     31 O          21.9165   -0.2599   -2.5087 O.2       2 UNK        -0.5286 
     32 CA         23.3563   -0.2738   -0.5769 C.3       2 UNK         0.0209 
     33 CB         22.5434   -1.4793   -0.0573 C.3       2 UNK        -0.1931 
     34 N          24.7944   -0.4996   -0.3466 N.am      2 UNK        -0.4546 
     35 C          25.5867   -1.3831   -0.9785 C.2       1 UNK         0.5154 
     36 O          25.2019   -2.0625   -1.9305 O.2       1 UNK        -0.5181 
     37 C          28.9116   -1.8521   -7.4377 C.2       5 UNK         0.5014 
     38 O          29.5941   -1.3468   -8.3298 O.2       5 UNK        -0.5248 
     39 N          28.9654   -1.4644   -6.1522 N.am      6 UNK        -0.4434 
     40 CA         29.7255   -0.3098   -5.6566 C.3       6 UNK         0.0363 
     41 CB         29.5121   -0.1423   -4.1441 C.3       6 UNK        -0.1936 
     42 C          29.3716    1.0117   -6.3581 C.2       6 UNK         0.5081 
     43 O          30.2700    1.8110   -6.6209 O.2       6 UNK        -0.5248 
     44 N          28.0798    1.2171   -6.6469 N.am      7 UNK        -0.4718 
     45 CA         27.5845    2.3866   -7.3677 C.3       7 UNK         0.0273 
     46 CB         26.1512    2.7108   -6.9180 C.3       7 UNK        -0.1935 
     47 C          27.6445    2.1690   -8.8836 C.2       7 UNK         0.5018 
     48 O          28.0450    3.0863   -9.5994 O.2       7 UNK        -0.5186 
     49 N          27.2628    0.9679   -9.3474 N.am      8 UNK        -0.4240 
     50 CA         27.1878    0.6286  -10.7739 C.3       8 UNK         0.0235 
     51 CB         26.4794   -0.7213  -10.9701 C.3       8 UNK        -0.2000 
     52 C          28.5537    0.6351  -11.4822 C.2       8 UNK         0.4941 
     53 O          28.6472    1.1597  -12.5926 O.2       8 UNK        -0.5273 
     54 N          29.5857    0.0788  -10.8310 N.am      9 UNK        -0.4262 
     55 CA         30.9669    0.0861  -11.3261 C.3       9 UNK         0.0264 
     56 CB         31.6493   -1.2355  -10.9343 C.3       9 UNK        -0.1955 
     57 C          31.7744    1.2925  -10.8109 C.2       9 UNK         0.5031 
     58 O          32.9163    1.4673  -11.2381 O.2       9 UNK        -0.5390 
     59 N          31.1868    2.0864   -9.9010 N.am      10 UNK        -0.4204 
     60 CA         31.7520    3.2657   -9.2287 C.3       10 UNK         0.0237 
     61 CB         32.0208    4.3992  -10.2414 C.3       10 UNK        -0.1985 
     62 C          32.9761    2.9622   -8.3370 C.2       10 UNK         0.4970 
     63 O          33.7486    3.8738   -8.0346 O.2       10 UNK        -0.4914 
     64 N          33.1293    1.6988   -7.9243 N.am      11 UNK        -0.4285 
     65 CA         34.1904    1.2138   -7.0321 C.3       11 UNK         0.1007 
     66 C          33.9287    1.4669   -5.5190 C.2       11 UNK         0.5703 
     67 N          32.7377    1.8825   -5.1044 N.am      11 UNK        -0.7361 
     68 O          34.8347    1.2986   -4.7062 O.2       11 UNK        -0.4986 
     69 C69        34.5476   -0.2659   -7.3354 C.3       12 UNK        -0.0947 
     70 S70        33.1159   -1.3935   -7.2491 S.3       12 UNK        -0.2240 
     71 C71        33.4967   -2.3471   -5.7479 C.3       12 UNK         0.0194 
     72 H72        27.6273   -1.7296    3.9710 H         1 UNK         0.0906 
     73 H73        27.6574   -0.1229    3.2428 H         1 UNK         0.0906 
     74 H74        26.1426   -0.7805    3.8648 H         1 UNK         0.0906 
     75 H75        27.7714   -0.2086    1.0206 H         1 UNK         0.3140 
     76 H76        27.6062   -0.7665   -1.0782 H         1 UNK         0.1085 
     77 H77        28.5427   -3.0468   -0.0987 H         1 UNK         0.0836 
     78 H78        26.9879   -3.6982   -0.5215 H         1 UNK         0.0836 
     79 H79        30.0655   -4.4645   -1.6728 H         1 UNK         0.0731 
     80 H80        30.5214   -2.7713   -1.7066 H         1 UNK         0.0731 
     81 H81        32.1515   -2.2487   -3.3760 H         1 UNK         0.1312 
     82 H82        32.1984   -4.3009   -7.1426 H         1 UNK         0.1406 
     83 H83        29.3091   -5.3586   -4.1572 H         1 UNK         0.1631 
     84 H84        30.6169   -6.0421   -7.6209 H         1 UNK         0.0717 
     85 H85        30.1337   -6.9522   -6.2109 H         1 UNK         0.0717 
     86 H86        29.4514   -4.1738   -8.6194 H         1 UNK         0.0934 
     87 H87        27.8666   -4.6297   -9.1291 H         1 UNK         0.0934 
     88 H88        27.4285   -2.4708   -8.7603 H         1 UNK         0.0739 
     89 H89        26.5220   -3.8598   -6.5076 H         1 UNK         0.3093 
     90 H90        23.7897   -2.3286   -6.3260 H         1 UNK         0.0818 
     91 H91        24.0201   -3.6000   -4.1619 H         1 UNK         0.0819 
     92 H92        24.8542   -4.3799   -5.4874 H         1 UNK         0.0819 
     93 H93        25.7680   -3.4727   -4.2801 H         1 UNK         0.0819 
     94 H94        24.9161   -1.1285   -3.8984 H         1 UNK         0.3041 
     95 H95        24.8213    1.7087   -4.3067 H         1 UNK         0.0784 
     96 H96        22.8193    2.7003   -5.3364 H         1 UNK         0.0793 
     97 H97        21.7648    1.8486   -4.2186 H         1 UNK         0.0793 
     98 H98        22.8561    3.1021   -3.6288 H         1 UNK         0.0793 
     99 H99        24.7678    1.0339   -2.2150 H         1 UNK         0.3024 
    100 H100       23.0781    0.5934    0.0246 H         1 UNK         0.1171 
    101 H101       22.7961   -1.7119    0.9773 H         1 UNK         0.0786 
    102 H102       21.4722   -1.2766   -0.0898 H         1 UNK         0.0786 
    103 H103       22.7243   -2.3737   -0.6548 H         1 UNK         0.0786 
    104 H104       25.2065    0.0282    0.4107 H         1 UNK         0.2977 
    105 H105       28.3911   -1.9517   -5.4803 H         1 UNK         0.3127 
    106 H106       30.7827   -0.5054   -5.8345 H         1 UNK         0.0770 
    107 H107       28.4549   -0.0646   -3.8878 H         1 UNK         0.0814 
    108 H108       30.0051    0.7585   -3.7755 H         1 UNK         0.0814 
    109 H109       29.9332   -0.9750   -3.5885 H         1 UNK         0.0814 
    110 H110       27.4100    0.4746   -6.4725 H         1 UNK         0.2983 
    111 H111       28.2104    3.2505   -7.1311 H         1 UNK         0.0947 
    112 H112       25.4704    1.8756   -7.0870 H         1 UNK         0.0806 
    113 H113       25.7558    3.5682   -7.4643 H         1 UNK         0.0806 
    114 H114       26.1215    2.9644   -5.8590 H         1 UNK         0.0806 
    115 H115       26.9222    0.2812   -8.6822 H         1 UNK         0.3000 
    116 H116       26.5702    1.3962  -11.2459 H         1 UNK         0.0850 
    117 H117       26.1791   -0.8448  -12.0113 H         1 UNK         0.0810 
    118 H118       25.5781   -0.7999  -10.3615 H         1 UNK         0.0810 
    119 H119       27.1298   -1.5609  -10.7311 H         1 UNK         0.0810 
    120 H120       29.4372   -0.3615   -9.9238 H         1 UNK         0.3040 
    121 H121       30.9657    0.1446  -12.4166 H         1 UNK         0.0766 
    122 H122       31.0986   -2.0953  -11.3155 H         1 UNK         0.0812 
    123 H123       31.7300   -1.3434   -9.8535 H         1 UNK         0.0812 
    124 H124       32.6599   -1.2909  -11.3410 H         1 UNK         0.0812 
    125 H125       30.2390    1.8575   -9.6350 H         1 UNK         0.3205 
    126 H126       30.9741    3.6175   -8.5496 H         1 UNK         0.0754 
    127 H127       32.2896    5.3255   -9.7322 H         1 UNK         0.0769 
    128 H128       31.1366    4.6087  -10.8437 H         1 UNK         0.0769 
    129 H129       32.8387    4.1521  -10.9189 H         1 UNK         0.0769 
    130 H130       32.4268    1.0192   -8.1755 H         1 UNK         0.2981 
    131 H131       35.0879    1.7924   -7.2587 H         1 UNK         0.0541 
    132 H132       31.9671    1.9895   -5.7574 H         1 UNK         0.3459 
    133 H133       32.5944    2.0574   -4.1236 H         1 UNK         0.3459 
    134 H134       35.3445   -0.6191   -6.6786 H         1 UNK         0.0612 
    135 H135       34.9525   -0.3359   -8.3461 H         1 UNK         0.0612 
    136 H136       33.7933   -1.6577   -4.9558 H         1 UNK         0.0624 
    137 H137       34.3537   -2.9940   -5.9395 H         1 UNK         0.0624 
@<TRIPOS>BOND
     1    1    2 1    
     2    1   72 1    
     3    1   73 1    
     4    1   74 1    
     5    2    3 2    
     6    2    4 am   BACKBONE|DICT|INTERRES
     7    4    5 1    
     8    4   75 1    
     9    5    6 1    
    10    5   35 1    
    11    5   76 1    
    12    6    7 1    
    13    6   77 1    
    14    6   78 1    
    15    7    8 1    
    16    8    9 1    
    17    8   79 1    
    18    8   80 1    
    19    9   10 ar   
    20    9   14 ar   
    21   10   11 ar   
    22   10   81 1    
    23   11   12 ar   
    24   11   71 1    
    25   12   13 ar   
    26   12   82 1    
    27   13   14 ar   
    28   13   15 1    
    29   14   83 1    
    30   15   16 1    
    31   15   84 1    
    32   15   85 1    
    33   16   17 1    
    34   17   18 1    
    35   17   86 1    
    36   17   87 1    
    37   18   19 1    
    38   18   37 1    
    39   18   88 1    
    40   19   20 am   BACKBONE|DICT|INTERRES
    41   19   89 1    
    42   20   21 2    
    43   20   22 1    
    44   22   23 1    
    45   22   24 1    
    46   22   90 1    
    47   23   91 1    
    48   23   92 1    
    49   23   93 1    
    50   24   25 am   BACKBONE|DICT|INTERRES
    51   24   94 1    
    52   25   26 2    
    53   25   27 1    
    54   27   28 1    
    55   27   29 1    
    56   27   95 1    
    57   28   96 1    
    58   28   97 1    
    59   28   98 1    
    60   29   30 am   BACKBONE|DICT|INTERRES
    61   29   99 1    
    62   30   31 2    
    63   30   32 1    
    64   32   33 1    
    65   32   34 1    
    66   32  100 1    
    67   33  101 1    
    68   33  102 1    
    69   33  103 1    
    70   34   35 am   BACKBONE|DICT|INTERRES
    71   34  104 1    
    72   35   36 2    
    73   37   38 2    
    74   37   39 am   BACKBONE|DICT|INTERRES
    75   39   40 1    
    76   39  105 1    
    77   40   41 1    
    78   40   42 1    
    79   40  106 1    
    80   41  107 1    
    81   41  108 1    
    82   41  109 1    
    83   42   43 2    
    84   42   44 am   BACKBONE|DICT|INTERRES
    85   44   45 1    
    86   44  110 1    
    87   45   46 1    
    88   45   47 1    
    89   45  111 1    
    90   46  112 1    
    91   46  113 1    
    92   46  114 1    
    93   47   48 2    
    94   47   49 am   BACKBONE|DICT|INTERRES
    95   49   50 1    
    96   49  115 1    
    97   50   51 1    
    98   50   52 1    
    99   50  116 1    
   100   51  117 1    
   101   51  118 1    
   102   51  119 1    
   103   52   53 2    
   104   52   54 am   BACKBONE|DICT|INTERRES
   105   54   55 1    
   106   54  120 1    
   107   55   56 1    
   108   55   57 1    
   109   55  121 1    
   110   56  122 1    
   111   56  123 1    
   112   56  124 1    
   113   57   58 2    
   114   57   59 am   BACKBONE|DICT|INTERRES
   115   59   60 1    
   116   59  125 1    
   117   60   61 1    
   118   60   62 1    
   119   60  126 1    
   120   61  127 1    
   121   61  128 1    
   122   61  129 1    
   123   62   63 2    
   124   62   64 am   BACKBONE|DICT|INTERRES
   125   64   65 1    
   126   64  130 1    
   127   65   66 1    
   128   65   69 1    
   129   65  131 1    
   130   66   67 am   BACKBONE|DICT|INTERRES
   131   66   68 2    
   132   67  132 1    
   133   67  133 1    
   134   69   70 1    
   135   69  134 1    
   136   69  135 1    
   137   70   71 1    
   138   71  136 1    
   139   71  137 1    
@<TRIPOS>SUBSTRUCTURE
     1 UNK         1 GROUP             0       ****    0 ROOT    
