@<TRIPOS>MOLECULE
3R137
137   139    1
SMALL
USER_CHARGES


@<TRIPOS>ATOM
      1 CA         27.9004   -7.0221   -8.0419 C.3       0 UNK        -0.2020 
      2 C          27.3463   -6.9184   -6.6288 C.2       0 UNK         0.4855 
      3 O          26.8126   -7.8977   -6.1054 O.2       0 UNK        -0.5197 
      4 N          27.4752   -5.7421   -6.0080 N.am      1 UNK        -0.4892 
      5 CA         26.9481   -5.4296   -4.6748 C.3       1 UNK         0.0835 
      6 C6         27.7635   -4.3050   -3.9826 C.3       12 UNK        -0.0855 
      7 S7         29.5609   -4.6456   -3.9630 S.3       12 UNK        -0.2931 
      8 C8         30.1036   -3.9781   -2.3544 C.3       12 UNK         0.0378 
      9 C9         30.4892   -2.5009   -2.4003 C.ar      12 UNK        -0.0802 
     10 C10        31.4169   -2.0330   -3.3400 C.ar      12 UNK        -0.0944 
     11 C11        31.8354   -0.6980   -3.3280 C.ar      12 UNK        -0.0787 
     12 C12        31.3312    0.1705   -2.3559 C.ar      12 UNK        -0.0862 
     13 C13        30.4130   -0.2837   -1.4036 C.ar      12 UNK        -0.0733 
     14 C14        29.9841   -1.6151   -1.4421 C.ar      12 UNK        -0.0832 
     15 C15        29.9467    0.6358   -0.2815 C.3       12 UNK         0.0240 
     16 S16        28.3949    1.5012   -0.6741 S.3       12 UNK        -0.2522 
     17 C17        28.9652    2.7974   -1.8268 C.3       12 UNK        -0.0967 
     18 CA         28.4373    2.5624   -3.2641 C.3       5 UNK         0.0660 
     19 N          26.9653    2.5637   -3.2924 N.am      5 UNK        -0.4015 
     20 C          26.1552    2.1115   -4.2588 C.2       4 UNK         0.4946 
     21 O          26.5354    1.7466   -5.3762 O.2       4 UNK        -0.5353 
     22 CA         24.6537    2.0974   -3.9293 C.3       4 UNK         0.0277 
     23 CB         24.0133    3.4340   -4.3373 C.3       4 UNK        -0.1981 
     24 N          23.9399    1.0039   -4.5963 N.am      4 UNK        -0.4209 
     25 C          24.1923   -0.3029   -4.4351 C.2       3 UNK         0.4942 
     26 O          25.0518   -0.7514   -3.6716 O.2       3 UNK        -0.5208 
     27 CA         23.3386   -1.2559   -5.2927 C.3       3 UNK         0.0250 
     28 CB         23.7309   -1.1586   -6.7782 C.3       3 UNK        -0.1990 
     29 N          23.4691   -2.6498   -4.8674 N.am      3 UNK        -0.4232 
     30 C          22.9665   -3.1860   -3.7501 C.2       2 UNK         0.4993 
     31 O          22.2283   -2.5763   -2.9745 O.2       2 UNK        -0.5286 
     32 CA         23.3400   -4.6502   -3.4343 C.3       2 UNK         0.0209 
     33 CB         22.4034   -5.6276   -4.1722 C.3       2 UNK        -0.1931 
     34 N          24.7575   -5.0066   -3.6411 N.am      2 UNK        -0.4546 
     35 C          25.4587   -5.0358   -4.7851 C.2       1 UNK         0.5154 
     36 O          24.9819   -4.7268   -5.8817 O.2       1 UNK        -0.5181 
     37 C          29.0944    3.5096   -4.2976 C.2       5 UNK         0.5014 
     38 O          29.9401    4.3347   -3.9472 O.2       5 UNK        -0.5248 
     39 N          28.6993    3.3491   -5.5591 N.am      6 UNK        -0.4434 
     40 CA         29.2629    3.9544   -6.7574 C.3       6 UNK         0.0363 
     41 CB         28.7124    5.3744   -6.9744 C.3       6 UNK        -0.1936 
     42 C          28.9577    3.0351   -7.9452 C.2       6 UNK         0.5081 
     43 O          29.8666    2.6897   -8.6994 O.2       6 UNK        -0.5248 
     44 N          27.6920    2.6056   -8.0558 N.am      7 UNK        -0.4718 
     45 CA         27.2485    1.5718   -8.9929 C.3       7 UNK         0.0273 
     46 CB         25.7181    1.6278   -9.1244 C.3       7 UNK        -0.1935 
     47 C          27.7007    0.1688   -8.5551 C.2       7 UNK         0.5018 
     48 O          28.1098   -0.6157   -9.4107 O.2       7 UNK        -0.5186 
     49 N          27.6472   -0.0755   -7.2345 N.am      8 UNK        -0.4240 
     50 CA         27.9527   -1.2872   -6.4616 C.3       8 UNK         0.0235 
     51 CB         28.5381   -0.8510   -5.1074 C.3       8 UNK        -0.2000 
     52 C          28.8500   -2.3365   -7.1366 C.2       8 UNK         0.4941 
     53 O          28.3854   -3.4406   -7.4224 O.2       8 UNK        -0.5273 
     54 N          30.1047   -1.9573   -7.3920 N.am      9 UNK        -0.4262 
     55 CA         31.0798   -2.7445   -8.1458 C.3       9 UNK         0.0264 
     56 CB         32.0987   -3.3541   -7.1642 C.3       9 UNK        -0.1955 
     57 C          31.7405   -1.8720   -9.2270 C.2       9 UNK         0.5031 
     58 O          32.9194   -2.0687   -9.5259 O.2       9 UNK        -0.5390 
     59 N          30.9861   -0.8930   -9.7592 N.am      10 UNK        -0.4204 
     60 CA         31.4298    0.1839  -10.6602 C.3       10 UNK         0.0237 
     61 CB         31.7552   -0.3769  -12.0606 C.3       10 UNK        -0.1985 
     62 C          32.5799    1.0317  -10.0699 C.2       10 UNK         0.4970 
     63 O          33.4498    1.4987  -10.8076 O.2       10 UNK        -0.4914 
     64 N          32.5702    1.1834   -8.7411 N.am      11 UNK        -0.4285 
     65 CA         33.6013    1.8426   -7.9336 C.3       11 UNK         0.1007 
     66 C          33.4734    3.3890   -7.8338 C.2       11 UNK         0.5703 
     67 N          32.4253    4.0082   -8.3608 N.am      11 UNK        -0.7361 
     68 O          34.3632    4.0447   -7.2968 O.2       11 UNK        -0.4986 
     69 C69        33.7639    1.1457   -6.5540 C.3       12 UNK        -0.0947 
     70 S70        32.2110    0.8220   -5.6416 S.3       12 UNK        -0.2240 
     71 C71        32.8945   -0.2134   -4.3085 C.3       12 UNK         0.0194 
     72 H72        28.3625   -6.0893   -8.3656 H         1 UNK         0.0906 
     73 H73        28.6526   -7.8087   -8.0943 H         1 UNK         0.0906 
     74 H74        27.1012   -7.2651   -8.7415 H         1 UNK         0.0906 
     75 H75        27.8731   -4.9501   -6.5123 H         1 UNK         0.3140 
     76 H76        27.0113   -6.3281   -4.0567 H         1 UNK         0.1085 
     77 H77        27.4173   -4.1625   -2.9577 H         1 UNK         0.0836 
     78 H78        27.5903   -3.3582   -4.4880 H         1 UNK         0.0836 
     79 H79        30.9807   -4.5418   -2.0341 H         1 UNK         0.0731 
     80 H80        29.3370   -4.1653   -1.6013 H         1 UNK         0.0731 
     81 H81        31.8268   -2.7176   -4.0698 H         1 UNK         0.1312 
     82 H82        31.6826    1.1924   -2.3247 H         1 UNK         0.1406 
     83 H83        29.2867   -1.9702   -0.6954 H         1 UNK         0.1631 
     84 H84        30.7222    1.3624   -0.0342 H         1 UNK         0.0717 
     85 H85        29.7921    0.0502    0.6261 H         1 UNK         0.0717 
     86 H86        28.6323    3.7670   -1.4516 H         1 UNK         0.0934 
     87 H87        30.0554    2.8344   -1.8115 H         1 UNK         0.0934 
     88 H88        28.7571    1.5604   -3.5526 H         1 UNK         0.0739 
     89 H89        26.5364    2.8657   -2.4300 H         1 UNK         0.3093 
     90 H90        24.5334    1.9590   -2.8528 H         1 UNK         0.0818 
     91 H91        24.4992    4.2726   -3.8366 H         1 UNK         0.0819 
     92 H92        24.0927    3.6072   -5.4116 H         1 UNK         0.0819 
     93 H93        22.9574    3.4683   -4.0683 H         1 UNK         0.0819 
     94 H94        23.2349    1.2770   -5.2648 H         1 UNK         0.3041 
     95 H95        22.2917   -0.9647   -5.1844 H         1 UNK         0.0784 
     96 H96        23.5883   -0.1483   -7.1625 H         1 UNK         0.0793 
     97 H97        24.7757   -1.4239   -6.9393 H         1 UNK         0.0793 
     98 H98        23.1216   -1.8223   -7.3920 H         1 UNK         0.0793 
     99 H99        24.0667   -3.2519   -5.4302 H         1 UNK         0.3024 
    100 H100       23.1612   -4.7801   -2.3652 H         1 UNK         0.1171 
    101 H101       22.5092   -5.5582   -5.2552 H         1 UNK         0.0786 
    102 H102       22.5992   -6.6598   -3.8819 H         1 UNK         0.0786 
    103 H103       21.3592   -5.4178   -3.9363 H         1 UNK         0.0786 
    104 H104       25.2518   -5.2415   -2.7909 H         1 UNK         0.2977 
    105 H105       27.9686    2.6533   -5.7079 H         1 UNK         0.3127 
    106 H106       30.3459    4.0065   -6.6366 H         1 UNK         0.0770 
    107 H107       29.1141    5.8108   -7.8897 H         1 UNK         0.0814 
    108 H108       28.9893    6.0348   -6.1525 H         1 UNK         0.0814 
    109 H109       27.6251    5.3812   -7.0561 H         1 UNK         0.0814 
    110 H110       27.0007    2.9416   -7.3994 H         1 UNK         0.2983 
    111 H111       27.6878    1.7757   -9.9723 H         1 UNK         0.0947 
    112 H112       25.3557    0.8572   -9.8064 H         1 UNK         0.0806 
    113 H113       25.3902    2.5893   -9.5197 H         1 UNK         0.0806 
    114 H114       25.2237    1.4742   -8.1643 H         1 UNK         0.0806 
    115 H115       27.2490    0.6680   -6.6649 H         1 UNK         0.3000 
    116 H116       27.0001   -1.7806   -6.2652 H         1 UNK         0.0850 
    117 H117       29.2929   -0.0733   -5.2211 H         1 UNK         0.0810 
    118 H118       29.0167   -1.6777   -4.5893 H         1 UNK         0.0810 
    119 H119       27.7599   -0.4747   -4.4444 H         1 UNK         0.0810 
    120 H120       30.3991   -1.0378   -7.0959 H         1 UNK         0.3040 
    121 H121       30.5815   -3.5593   -8.6751 H         1 UNK         0.0766 
    122 H122       31.6024   -3.9635   -6.4085 H         1 UNK         0.0812 
    123 H123       32.6710   -2.5812   -6.6503 H         1 UNK         0.0812 
    124 H124       32.8087   -3.9989   -7.6833 H         1 UNK         0.0812 
    125 H125       30.0006   -0.8599   -9.5023 H         1 UNK         0.3205 
    126 H126       30.5805    0.8610  -10.7639 H         1 UNK         0.0754 
    127 H127       31.9592    0.4280  -12.7678 H         1 UNK         0.0769 
    128 H128       30.9203   -0.9528  -12.4600 H         1 UNK         0.0769 
    129 H129       32.6321   -1.0249  -12.0429 H         1 UNK         0.0769 
    130 H130       31.7801    0.8335   -8.2233 H         1 UNK         0.2981 
    131 H131       34.5497    1.6937   -8.4532 H         1 UNK         0.0541 
    132 H132       31.6544    3.4720   -8.7451 H         1 UNK         0.3459 
    133 H133       32.3713    5.0123   -8.3126 H         1 UNK         0.3459 
    134 H134       34.4428    1.7055   -5.9081 H         1 UNK         0.0612 
    135 H135       34.2483    0.1813   -6.7157 H         1 UNK         0.0612 
    136 H136       33.6498    0.3582   -3.7671 H         1 UNK         0.0624 
    137 H137       33.4152   -1.0643   -4.7499 H         1 UNK         0.0624 
@<TRIPOS>BOND
     1    1    2 1    
     2    1   72 1    
     3    1   73 1    
     4    1   74 1    
     5    2    3 2    
     6    2    4 am   BACKBONE|DICT|INTERRES
     7    4    5 1    
     8    4   75 1    
     9    5    6 1    
    10    5   35 1    
    11    5   76 1    
    12    6    7 1    
    13    6   77 1    
    14    6   78 1    
    15    7    8 1    
    16    8    9 1    
    17    8   79 1    
    18    8   80 1    
    19    9   10 ar   
    20    9   14 ar   
    21   10   11 ar   
    22   10   81 1    
    23   11   12 ar   
    24   11   71 1    
    25   12   13 ar   
    26   12   82 1    
    27   13   14 ar   
    28   13   15 1    
    29   14   83 1    
    30   15   16 1    
    31   15   84 1    
    32   15   85 1    
    33   16   17 1    
    34   17   18 1    
    35   17   86 1    
    36   17   87 1    
    37   18   19 1    
    38   18   37 1    
    39   18   88 1    
    40   19   20 am   BACKBONE|DICT|INTERRES
    41   19   89 1    
    42   20   21 2    
    43   20   22 1    
    44   22   23 1    
    45   22   24 1    
    46   22   90 1    
    47   23   91 1    
    48   23   92 1    
    49   23   93 1    
    50   24   25 am   BACKBONE|DICT|INTERRES
    51   24   94 1    
    52   25   26 2    
    53   25   27 1    
    54   27   28 1    
    55   27   29 1    
    56   27   95 1    
    57   28   96 1    
    58   28   97 1    
    59   28   98 1    
    60   29   30 am   BACKBONE|DICT|INTERRES
    61   29   99 1    
    62   30   31 2    
    63   30   32 1    
    64   32   33 1    
    65   32   34 1    
    66   32  100 1    
    67   33  101 1    
    68   33  102 1    
    69   33  103 1    
    70   34   35 am   BACKBONE|DICT|INTERRES
    71   34  104 1    
    72   35   36 2    
    73   37   38 2    
    74   37   39 am   BACKBONE|DICT|INTERRES
    75   39   40 1    
    76   39  105 1    
    77   40   41 1    
    78   40   42 1    
    79   40  106 1    
    80   41  107 1    
    81   41  108 1    
    82   41  109 1    
    83   42   43 2    
    84   42   44 am   BACKBONE|DICT|INTERRES
    85   44   45 1    
    86   44  110 1    
    87   45   46 1    
    88   45   47 1    
    89   45  111 1    
    90   46  112 1    
    91   46  113 1    
    92   46  114 1    
    93   47   48 2    
    94   47   49 am   BACKBONE|DICT|INTERRES
    95   49   50 1    
    96   49  115 1    
    97   50   51 1    
    98   50   52 1    
    99   50  116 1    
   100   51  117 1    
   101   51  118 1    
   102   51  119 1    
   103   52   53 2    
   104   52   54 am   BACKBONE|DICT|INTERRES
   105   54   55 1    
   106   54  120 1    
   107   55   56 1    
   108   55   57 1    
   109   55  121 1    
   110   56  122 1    
   111   56  123 1    
   112   56  124 1    
   113   57   58 2    
   114   57   59 am   BACKBONE|DICT|INTERRES
   115   59   60 1    
   116   59  125 1    
   117   60   61 1    
   118   60   62 1    
   119   60  126 1    
   120   61  127 1    
   121   61  128 1    
   122   61  129 1    
   123   62   63 2    
   124   62   64 am   BACKBONE|DICT|INTERRES
   125   64   65 1    
   126   64  130 1    
   127   65   66 1    
   128   65   69 1    
   129   65  131 1    
   130   66   67 am   BACKBONE|DICT|INTERRES
   131   66   68 2    
   132   67  132 1    
   133   67  133 1    
   134   69   70 1    
   135   69  134 1    
   136   69  135 1    
   137   70   71 1    
   138   71  136 1    
   139   71  137 1    
@<TRIPOS>SUBSTRUCTURE
     1 UNK         1 GROUP             0       ****    0 ROOT    
