@<TRIPOS>MOLECULE
3R137
137   139    1
SMALL
USER_CHARGES


@<TRIPOS>ATOM
      1 CA         26.8708    2.3443    1.3411 C.3       0 UNK        -0.2020 
      2 C          27.5208    1.7909    0.0818 C.2       0 UNK         0.4855 
      3 O          27.4347    2.4165   -0.9734 O.2       0 UNK        -0.5197 
      4 N          28.1818    0.6316    0.1911 N.am      1 UNK        -0.4892 
      5 CA         28.8207   -0.0773   -0.9254 C.3       1 UNK         0.0835 
      6 C6         30.0153   -0.9168   -0.4060 C.3       12 UNK        -0.0855 
      7 S7         31.1172   -1.5171   -1.7312 S.3       12 UNK        -0.2931 
      8 C8         31.0227   -3.3185   -1.4894 C.3       12 UNK         0.0378 
      9 C9         31.0502   -4.0484   -2.8204 C.ar      12 UNK        -0.0802 
     10 C10        32.2646   -4.4186   -3.4051 C.ar      12 UNK        -0.0944 
     11 C11        32.2822   -5.0966   -4.6282 C.ar      12 UNK        -0.0787 
     12 C12        31.0745   -5.4177   -5.2561 C.ar      12 UNK        -0.0862 
     13 C13        29.8554   -5.0449   -4.6818 C.ar      12 UNK        -0.0733 
     14 C14        29.8504   -4.3579   -3.4654 C.ar      12 UNK        -0.0832 
     15 C15        28.5425   -5.3763   -5.3758 C.3       12 UNK         0.0240 
     16 S16        28.3039   -4.3875   -6.8837 S.3       12 UNK        -0.2522 
     17 C17        28.3790   -2.6873   -6.2283 C.3       12 UNK        -0.0967 
     18 CA         27.5867   -1.7117   -7.1256 C.3       5 UNK         0.0660 
     19 N          26.1483   -1.9910   -7.1238 N.am      5 UNK        -0.4015 
     20 C          25.2763   -1.4581   -7.9892 C.2       4 UNK         0.4946 
     21 O          25.5924   -0.6846   -8.8920 O.2       4 UNK        -0.5353 
     22 CA         23.7946   -1.8127   -7.7895 C.3       4 UNK         0.0277 
     23 CB         23.4582   -3.1371   -8.4931 C.3       4 UNK        -0.1981 
     24 N          23.3809   -1.8809   -6.3832 N.am      4 UNK        -0.4209 
     25 C          23.4649   -0.8691   -5.5060 C.2       3 UNK         0.4942 
     26 O          23.9805    0.2184   -5.7659 O.2       3 UNK        -0.5208 
     27 CA         22.8869   -1.1180   -4.1060 C.3       3 UNK         0.0250 
     28 CB         21.5694   -1.9184   -4.1374 C.3       3 UNK        -0.1990 
     29 N          23.8648   -1.8205   -3.2739 N.am      3 UNK        -0.4232 
     30 C          24.6790   -1.2327   -2.3873 C.2       2 UNK         0.4993 
     31 O          24.6764   -0.0215   -2.1589 O.2       2 UNK        -0.5286 
     32 CA         25.6058   -2.1578   -1.5689 C.3       2 UNK         0.0209 
     33 CB         26.0297   -3.4440   -2.3183 C.3       2 UNK        -0.1931 
     34 N          26.7708   -1.4393   -1.0316 N.am      2 UNK        -0.4546 
     35 C          27.7950   -0.9165   -1.7257 C.2       1 UNK         0.5154 
     36 O          27.9371   -1.0553   -2.9412 O.2       1 UNK        -0.5181 
     37 C          27.8996   -0.2466   -6.7690 C.2       5 UNK         0.5014 
     38 O          28.8096    0.3247   -7.3689 O.2       5 UNK        -0.5248 
     39 N          27.1282    0.3537   -5.8509 N.am      6 UNK        -0.4434 
     40 CA         27.2359    1.7703   -5.4985 C.3       6 UNK         0.0363 
     41 CB         26.4692    2.0524   -4.1991 C.3       6 UNK        -0.1936 
     42 C          26.7341    2.6782   -6.6296 C.2       6 UNK         0.5081 
     43 O          27.3772    3.6856   -6.9218 O.2       6 UNK        -0.5248 
     44 N          25.6207    2.2887   -7.2684 N.am      7 UNK        -0.4718 
     45 CA         25.0431    2.9764   -8.4273 C.3       7 UNK         0.0273 
     46 CB         23.6673    2.3731   -8.7524 C.3       7 UNK        -0.1935 
     47 C          25.9641    2.9457   -9.6604 C.2       7 UNK         0.5018 
     48 O          26.1051    3.9653  -10.3364 O.2       7 UNK        -0.5186 
     49 N          26.5942    1.7900   -9.9120 N.am      8 UNK        -0.4240 
     50 CA         27.5862    1.5910  -10.9724 C.3       8 UNK         0.0235 
     51 CB         27.7378    0.0826  -11.2323 C.3       8 UNK        -0.2000 
     52 C          28.9627    2.2088  -10.6610 C.2       8 UNK         0.4941 
     53 O          29.7614    2.3646  -11.5856 O.2       8 UNK        -0.5273 
     54 N          29.2261    2.5125   -9.3802 N.am      9 UNK        -0.4262 
     55 CA         30.5101    2.9317   -8.8029 C.3       9 UNK         0.0264 
     56 CB         30.9318    4.3210   -9.3265 C.3       9 UNK        -0.1955 
     57 C          31.6017    1.8545   -8.9742 C.2       9 UNK         0.5031 
     58 O          32.7444    2.1710   -9.3140 O.2       9 UNK        -0.5390 
     59 N          31.2169    0.5925   -8.7508 N.am      10 UNK        -0.4204 
     60 CA         32.0811   -0.5808   -8.8449 C.3       10 UNK         0.0237 
     61 CB         31.2112   -1.8188   -9.1203 C.3       10 UNK        -0.1985 
     62 C          32.8900   -0.7687   -7.5536 C.2       10 UNK         0.4970 
     63 O          32.4068   -0.4255   -6.4724 O.2       10 UNK        -0.4914 
     64 N          34.0919   -1.3409   -7.6996 N.am      11 UNK        -0.4285 
     65 CA         35.0217   -1.7033   -6.6123 C.3       11 UNK         0.1007 
     66 C          35.6021   -0.4982   -5.8081 C.2       11 UNK         0.5703 
     67 N          35.5110    0.7320   -6.3001 N.am      11 UNK        -0.7361 
     68 O          36.1831   -0.6803   -4.7404 O.2       11 UNK        -0.4986 
     69 C69        34.4637   -2.8307   -5.6944 C.3       12 UNK        -0.0947 
     70 S70        34.0507   -4.3459   -6.6242 S.3       12 UNK        -0.2240 
     71 C71        33.6039   -5.4823   -5.2750 C.3       12 UNK         0.0194 
     72 H72        25.7949    2.4380    1.1957 H         1 UNK         0.0906 
     73 H73        27.2712    3.3323    1.5668 H         1 UNK         0.0906 
     74 H74        27.0415    1.7039    2.2063 H         1 UNK         0.0906 
     75 H75        28.2446    0.1835    1.0948 H         1 UNK         0.3140 
     76 H76        29.2184    0.6693   -1.6176 H         1 UNK         0.1085 
     77 H77        29.6660   -1.7402    0.2188 H         1 UNK         0.0836 
     78 H78        30.6331   -0.2996    0.2488 H         1 UNK         0.0836 
     79 H79        31.8532   -3.6415   -0.8598 H         1 UNK         0.0731 
     80 H80        30.1113   -3.5899   -0.9549 H         1 UNK         0.0731 
     81 H81        33.1949   -4.1685   -2.9135 H         1 UNK         0.1312 
     82 H82        31.0833   -5.9394   -6.2035 H         1 UNK         0.1406 
     83 H83        28.9128   -4.0554   -3.0200 H         1 UNK         0.1631 
     84 H84        27.6951   -5.2191   -4.7067 H         1 UNK         0.0717 
     85 H85        28.5312   -6.4345   -5.6408 H         1 UNK         0.0717 
     86 H86        27.9999   -2.6626   -5.2052 H         1 UNK         0.0934 
     87 H87        29.4315   -2.4009   -6.1672 H         1 UNK         0.0934 
     88 H88        27.9346   -1.8521   -8.1518 H         1 UNK         0.0739 
     89 H89        25.8095   -2.6344   -6.4252 H         1 UNK         0.3093 
     90 H90        23.2080   -1.0211   -8.2603 H         1 UNK         0.0818 
     91 H91        23.7413   -3.1011   -9.5463 H         1 UNK         0.0819 
     92 H92        23.9833   -3.9810   -8.0439 H         1 UNK         0.0819 
     93 H93        22.3891   -3.3470   -8.4556 H         1 UNK         0.0819 
     94 H94        22.9352   -2.7366   -6.0860 H         1 UNK         0.3041 
     95 H95        22.6606   -0.1390   -3.6771 H         1 UNK         0.0784 
     96 H96        20.8486   -1.4617   -4.8175 H         1 UNK         0.0793 
     97 H97        21.7127   -2.9526   -4.4519 H         1 UNK         0.0793 
     98 H98        21.1063   -1.9398   -3.1505 H         1 UNK         0.0793 
     99 H99        23.9317   -2.8204   -3.3969 H         1 UNK         0.3024 
    100 H100       25.0209   -2.4641   -0.7000 H         1 UNK         0.1171 
    101 H101       25.1790   -4.1035   -2.4922 H         1 UNK         0.0786 
    102 H102       26.4793   -3.2247   -3.2868 H         1 UNK         0.0786 
    103 H103       26.7530   -4.0158   -1.7368 H         1 UNK         0.0786 
    104 H104       26.7215   -1.2153   -0.0483 H         1 UNK         0.2977 
    105 H105       26.3749   -0.1630   -5.4199 H         1 UNK         0.3127 
    106 H106       28.2903    1.9967   -5.3246 H         1 UNK         0.0770 
    107 H107       26.6035    3.0877   -3.8837 H         1 UNK         0.0814 
    108 H108       25.3981    1.8809   -4.3059 H         1 UNK         0.0814 
    109 H109       26.8245    1.4207   -3.3867 H         1 UNK         0.0814 
    110 H110       25.1335    1.4648   -6.9283 H         1 UNK         0.2983 
    111 H111       24.8989    4.0232   -8.1512 H         1 UNK         0.0947 
    112 H112       23.1943    2.9056   -9.5785 H         1 UNK         0.0806 
    113 H113       22.9942    2.4360   -7.8971 H         1 UNK         0.0806 
    114 H114       23.7428    1.3249   -9.0416 H         1 UNK         0.0806 
    115 H115       26.3493    0.9714   -9.3576 H         1 UNK         0.3000 
    116 H116       27.2142    2.0617  -11.8849 H         1 UNK         0.0850 
    117 H117       28.4413   -0.1081  -12.0438 H         1 UNK         0.0810 
    118 H118       26.7866   -0.3692  -11.5146 H         1 UNK         0.0810 
    119 H119       28.1073   -0.4410  -10.3495 H         1 UNK         0.0810 
    120 H120       28.4997    2.3183   -8.7029 H         1 UNK         0.3040 
    121 H121       30.3405    3.0224   -7.7288 H         1 UNK         0.0766 
    122 H122       31.1746    4.2991  -10.3892 H         1 UNK         0.0812 
    123 H123       31.8156    4.6832   -8.8000 H         1 UNK         0.0812 
    124 H124       30.1413    5.0564   -9.1770 H         1 UNK         0.0812 
    125 H125       30.2902    0.4447   -8.3496 H         1 UNK         0.3205 
    126 H126       32.7689   -0.4451   -9.6824 H         1 UNK         0.0754 
    127 H127       31.8257   -2.7132   -9.2325 H         1 UNK         0.0769 
    128 H128       30.6341   -1.7030  -10.0380 H         1 UNK         0.0769 
    129 H129       30.5114   -2.0074   -8.3063 H         1 UNK         0.0769 
    130 H130       34.4046   -1.5818   -8.6287 H         1 UNK         0.2981 
    131 H131       35.8942   -2.1170   -7.1189 H         1 UNK         0.0541 
    132 H132       35.9019    1.5013   -5.7796 H         1 UNK         0.3459 
    133 H133       35.0411    0.8998   -7.1754 H         1 UNK         0.3459 
    134 H134       33.5766   -2.4871   -5.1604 H         1 UNK         0.0612 
    135 H135       35.1953   -3.1043   -4.9323 H         1 UNK         0.0612 
    136 H136       33.5291   -6.4934   -5.6779 H         1 UNK         0.0624 
    137 H137       34.4071   -5.5060   -4.5368 H         1 UNK         0.0624 
@<TRIPOS>BOND
     1    1    2 1    
     2    1   72 1    
     3    1   73 1    
     4    1   74 1    
     5    2    3 2    
     6    2    4 am   BACKBONE|DICT|INTERRES
     7    4    5 1    
     8    4   75 1    
     9    5    6 1    
    10    5   35 1    
    11    5   76 1    
    12    6    7 1    
    13    6   77 1    
    14    6   78 1    
    15    7    8 1    
    16    8    9 1    
    17    8   79 1    
    18    8   80 1    
    19    9   10 ar   
    20    9   14 ar   
    21   10   11 ar   
    22   10   81 1    
    23   11   12 ar   
    24   11   71 1    
    25   12   13 ar   
    26   12   82 1    
    27   13   14 ar   
    28   13   15 1    
    29   14   83 1    
    30   15   16 1    
    31   15   84 1    
    32   15   85 1    
    33   16   17 1    
    34   17   18 1    
    35   17   86 1    
    36   17   87 1    
    37   18   19 1    
    38   18   37 1    
    39   18   88 1    
    40   19   20 am   BACKBONE|DICT|INTERRES
    41   19   89 1    
    42   20   21 2    
    43   20   22 1    
    44   22   23 1    
    45   22   24 1    
    46   22   90 1    
    47   23   91 1    
    48   23   92 1    
    49   23   93 1    
    50   24   25 am   BACKBONE|DICT|INTERRES
    51   24   94 1    
    52   25   26 2    
    53   25   27 1    
    54   27   28 1    
    55   27   29 1    
    56   27   95 1    
    57   28   96 1    
    58   28   97 1    
    59   28   98 1    
    60   29   30 am   BACKBONE|DICT|INTERRES
    61   29   99 1    
    62   30   31 2    
    63   30   32 1    
    64   32   33 1    
    65   32   34 1    
    66   32  100 1    
    67   33  101 1    
    68   33  102 1    
    69   33  103 1    
    70   34   35 am   BACKBONE|DICT|INTERRES
    71   34  104 1    
    72   35   36 2    
    73   37   38 2    
    74   37   39 am   BACKBONE|DICT|INTERRES
    75   39   40 1    
    76   39  105 1    
    77   40   41 1    
    78   40   42 1    
    79   40  106 1    
    80   41  107 1    
    81   41  108 1    
    82   41  109 1    
    83   42   43 2    
    84   42   44 am   BACKBONE|DICT|INTERRES
    85   44   45 1    
    86   44  110 1    
    87   45   46 1    
    88   45   47 1    
    89   45  111 1    
    90   46  112 1    
    91   46  113 1    
    92   46  114 1    
    93   47   48 2    
    94   47   49 am   BACKBONE|DICT|INTERRES
    95   49   50 1    
    96   49  115 1    
    97   50   51 1    
    98   50   52 1    
    99   50  116 1    
   100   51  117 1    
   101   51  118 1    
   102   51  119 1    
   103   52   53 2    
   104   52   54 am   BACKBONE|DICT|INTERRES
   105   54   55 1    
   106   54  120 1    
   107   55   56 1    
   108   55   57 1    
   109   55  121 1    
   110   56  122 1    
   111   56  123 1    
   112   56  124 1    
   113   57   58 2    
   114   57   59 am   BACKBONE|DICT|INTERRES
   115   59   60 1    
   116   59  125 1    
   117   60   61 1    
   118   60   62 1    
   119   60  126 1    
   120   61  127 1    
   121   61  128 1    
   122   61  129 1    
   123   62   63 2    
   124   62   64 am   BACKBONE|DICT|INTERRES
   125   64   65 1    
   126   64  130 1    
   127   65   66 1    
   128   65   69 1    
   129   65  131 1    
   130   66   67 am   BACKBONE|DICT|INTERRES
   131   66   68 2    
   132   67  132 1    
   133   67  133 1    
   134   69   70 1    
   135   69  134 1    
   136   69  135 1    
   137   70   71 1    
   138   71  136 1    
   139   71  137 1    
@<TRIPOS>SUBSTRUCTURE
     1 UNK         1 GROUP             0       ****    0 ROOT    
