@<TRIPOS>MOLECULE
3R137
137   139    1
SMALL
USER_CHARGES


@<TRIPOS>ATOM
      1 CA         30.0103   -0.3425   -2.0179 C.3       0 UNK        -0.2020 
      2 C          29.2482   -1.3678   -1.1954 C.2       0 UNK         0.4855 
      3 O          28.9401   -1.1073   -0.0325 O.2       0 UNK        -0.5197 
      4 N          28.9478   -2.5276   -1.7966 N.am      1 UNK        -0.4892 
      5 CA         28.2148   -3.6602   -1.2107 C.3       1 UNK         0.0835 
      6 C6         29.0296   -4.3943   -0.0999 C.3       12 UNK        -0.0855 
      7 S7         29.7117   -5.9832   -0.6937 S.3       12 UNK        -0.2931 
      8 C8         31.3179   -5.4998   -1.4283 C.3       12 UNK         0.0378 
      9 C9         31.1928   -4.6269   -2.6768 C.ar      12 UNK        -0.0802 
     10 C10        32.0497   -3.5337   -2.8512 C.ar      12 UNK        -0.0944 
     11 C11        31.9249   -2.6897   -3.9614 C.ar      12 UNK        -0.0787 
     12 C12        30.9146   -2.9459   -4.8956 C.ar      12 UNK        -0.0862 
     13 C13        30.0530   -4.0335   -4.7373 C.ar      12 UNK        -0.0733 
     14 C14        30.2230   -4.8932   -3.6504 C.ar      12 UNK        -0.0832 
     15 C15        28.9219   -4.2646   -5.7248 C.3       12 UNK         0.0240 
     16 S16        27.3318   -3.7025   -5.0341 S.3       12 UNK        -0.2522 
     17 C17        26.2797   -3.7691   -6.5294 C.3       12 UNK        -0.0967 
     18 CA         25.8821   -2.4138   -7.1846 C.3       5 UNK         0.0660 
     19 N          24.6582   -1.8352   -6.6229 N.am      5 UNK        -0.4015 
     20 C          23.7693   -1.1411   -7.3521 C.2       4 UNK         0.4946 
     21 O          23.8655   -0.9699   -8.5682 O.2       4 UNK        -0.5353 
     22 CA         22.5669   -0.5245   -6.6162 C.3       4 UNK         0.0277 
     23 CB         21.4204   -1.5432   -6.5105 C.3       4 UNK        -0.1981 
     24 N          22.8888   -0.0138   -5.2838 N.am      4 UNK        -0.4209 
     25 C          23.7293    0.9999   -5.0332 C.2       3 UNK         0.4942 
     26 O          24.3280    1.6318   -5.9035 O.2       3 UNK        -0.5208 
     27 CA         23.9813    1.3291   -3.5507 C.3       3 UNK         0.0250 
     28 CB         22.9215    2.3140   -3.0317 C.3       3 UNK        -0.1990 
     29 N          24.0363    0.1544   -2.6683 N.am      3 UNK        -0.4232 
     30 C          24.8464   -0.8978   -2.8456 C.2       2 UNK         0.4993 
     31 O          25.5810   -1.0397   -3.8290 O.2       2 UNK        -0.5286 
     32 CA         24.8153   -1.9927   -1.7753 C.3       2 UNK         0.0209 
     33 CB         23.6888   -3.0036   -2.0489 C.3       2 UNK        -0.1931 
     34 N          26.1054   -2.6608   -1.8423 N.am      2 UNK        -0.4546 
     35 C          26.7743   -3.2414   -0.8428 C.2       1 UNK         0.5154 
     36 O          26.3161   -3.4050    0.2899 O.2       1 UNK        -0.5181 
     37 C          27.0035   -1.3586   -7.2261 C.2       5 UNK         0.5014 
     38 O          27.7245   -1.2906   -8.2216 O.2       5 UNK        -0.5248 
     39 N          27.1070   -0.5297   -6.1747 N.am      6 UNK        -0.4434 
     40 CA         28.0969    0.5409   -6.0355 C.3       6 UNK         0.0363 
     41 CB         27.9352    1.2180   -4.6670 C.3       6 UNK        -0.1936 
     42 C          28.0185    1.5837   -7.1607 C.2       6 UNK         0.5081 
     43 O          29.0593    2.0171   -7.6509 O.2       6 UNK        -0.5248 
     44 N          26.7952    1.9279   -7.5885 N.am      7 UNK        -0.4718 
     45 CA         26.5296    2.8278   -8.7152 C.3       7 UNK         0.0273 
     46 CB         25.0187    3.0954   -8.8031 C.3       7 UNK        -0.1935 
     47 C          27.0612    2.3156  -10.0674 C.2       7 UNK         0.5018 
     48 O          27.4013    3.1338  -10.9228 O.2       7 UNK        -0.5186 
     49 N          27.1266    0.9880  -10.2373 N.am      8 UNK        -0.4240 
     50 CA         27.6836    0.3353  -11.4219 C.3       8 UNK         0.0235 
     51 CB         26.9419   -0.9882  -11.6748 C.3       8 UNK        -0.2000 
     52 C          29.1932    0.0947  -11.2704 C.2       8 UNK         0.4941 
     53 O          29.9441    0.3505  -12.2122 O.2       8 UNK        -0.5273 
     54 N          29.6074   -0.4045  -10.0979 N.am      9 UNK        -0.4262 
     55 CA         30.9874   -0.7780   -9.7842 C.3       9 UNK         0.0264 
     56 CB         30.9884   -1.6513   -8.5208 C.3       9 UNK        -0.1955 
     57 C          31.9378    0.4137   -9.5902 C.2       9 UNK         0.5031 
     58 O          33.1415    0.2485   -9.7938 O.2       9 UNK        -0.5390 
     59 N          31.4098    1.5628   -9.1437 N.am      10 UNK        -0.4204 
     60 CA         32.0922    2.8130   -8.7743 C.3       10 UNK         0.0237 
     61 CB         32.9024    3.3987   -9.9476 C.3       10 UNK        -0.1985 
     62 C          32.9427    2.7162   -7.4928 C.2       10 UNK         0.4970 
     63 O          32.9532    3.6708   -6.7150 O.2       10 UNK        -0.4914 
     64 N          33.6206    1.5792   -7.2910 N.am      11 UNK        -0.4285 
     65 CA         34.4337    1.2233   -6.1146 C.3       11 UNK         0.1007 
     66 C          35.7322    2.0699   -5.9389 C.2       11 UNK         0.5703 
     67 N          36.1976    2.7863   -6.9557 N.am      11 UNK        -0.7361 
     68 O          36.3524    2.0526   -4.8779 O.2       11 UNK        -0.4986 
     69 C69        33.5983    1.1190   -4.8039 C.3       12 UNK        -0.0947 
     70 S70        32.1981   -0.0460   -4.9319 S.3       12 UNK        -0.2240 
     71 C71        32.9064   -1.5290   -4.1340 C.3       12 UNK         0.0194 
     72 H72        31.0575   -0.3208   -1.7176 H         1 UNK         0.0906 
     73 H73        29.9642   -0.5723   -3.0814 H         1 UNK         0.0906 
     74 H74        29.5910    0.6523   -1.8702 H         1 UNK         0.0906 
     75 H75        29.2699   -2.6829   -2.7436 H         1 UNK         0.3140 
     76 H76        28.0573   -4.3619   -2.0302 H         1 UNK         0.1085 
     77 H77        29.8424   -3.7750    0.2822 H         1 UNK         0.0836 
     78 H78        28.4192   -4.6288    0.7729 H         1 UNK         0.0836 
     79 H79        31.9106   -4.9951   -0.6637 H         1 UNK         0.0731 
     80 H80        31.8653   -6.4046   -1.6949 H         1 UNK         0.0731 
     81 H81        32.8167   -3.3352   -2.1149 H         1 UNK         0.1312 
     82 H82        30.7915   -2.2965   -5.7482 H         1 UNK         0.1406 
     83 H83        29.5601   -5.7402   -3.5348 H         1 UNK         0.1631 
     84 H84        29.1210   -3.7339   -6.6574 H         1 UNK         0.0717 
     85 H85        28.8565   -5.3243   -5.9764 H         1 UNK         0.0717 
     86 H86        26.7920   -4.3789   -7.2756 H         1 UNK         0.0934 
     87 H87        25.3818   -4.3379   -6.2827 H         1 UNK         0.0934 
     88 H88        25.6732   -2.6566   -8.2293 H         1 UNK         0.0739 
     89 H89        24.5612   -1.8692   -5.6162 H         1 UNK         0.3093 
     90 H90        22.2180    0.3199   -7.2149 H         1 UNK         0.0818 
     91 H91        20.5263   -1.0919   -6.0801 H         1 UNK         0.0819 
     92 H92        21.1457   -1.9240   -7.4954 H         1 UNK         0.0819 
     93 H93        21.6948   -2.4008   -5.8948 H         1 UNK         0.0819 
     94 H94        22.4500   -0.4724   -4.4989 H         1 UNK         0.3041 
     95 H95        24.9534    1.8205   -3.4898 H         1 UNK         0.0784 
     96 H96        22.8743    3.2038   -3.6616 H         1 UNK         0.0793 
     97 H97        21.9256    1.8694   -3.0207 H         1 UNK         0.0793 
     98 H98        23.1516    2.6492   -2.0202 H         1 UNK         0.0793 
     99 H99        23.4515    0.1844   -1.8451 H         1 UNK         0.3024 
    100 H100       24.6879   -1.5345   -0.7918 H         1 UNK         0.1171 
    101 H101       23.6854   -3.8014   -1.3060 H         1 UNK         0.0786 
    102 H102       22.7106   -2.5227   -2.0113 H         1 UNK         0.0786 
    103 H103       23.7917   -3.4646   -3.0324 H         1 UNK         0.0786 
    104 H104       26.5746   -2.5216   -2.7311 H         1 UNK         0.2977 
    105 H105       26.4940   -0.6830   -5.3754 H         1 UNK         0.3127 
    106 H106       29.0841    0.0763   -6.0734 H         1 UNK         0.0770 
    107 H107       27.0126    1.7953   -4.6129 H         1 UNK         0.0814 
    108 H108       28.7618    1.9029   -4.4736 H         1 UNK         0.0814 
    109 H109       27.9167    0.4880   -3.8590 H         1 UNK         0.0814 
    110 H110       25.9852    1.5704   -7.0897 H         1 UNK         0.2983 
    111 H111       27.0348    3.7735   -8.5076 H         1 UNK         0.0947 
    112 H112       24.7846    3.7606   -9.6355 H         1 UNK         0.0806 
    113 H113       24.6478    3.5715   -7.8953 H         1 UNK         0.0806 
    114 H114       24.4550    2.1729   -8.9506 H         1 UNK         0.0806 
    115 H115       26.8666    0.3887   -9.4644 H         1 UNK         0.3000 
    116 H116       27.5319    0.9739  -12.2951 H         1 UNK         0.0850 
    117 H117       27.3285   -1.4870  -12.5645 H         1 UNK         0.0810 
    118 H118       25.8768   -0.8195  -11.8347 H         1 UNK         0.0810 
    119 H119       27.0470   -1.6825  -10.8403 H         1 UNK         0.0810 
    120 H120       28.9082   -0.6318   -9.3913 H         1 UNK         0.3040 
    121 H121       31.3736   -1.3740  -10.6138 H         1 UNK         0.0766 
    122 H122       30.3890   -2.5514   -8.6579 H         1 UNK         0.0812 
    123 H123       30.5836   -1.1044   -7.6692 H         1 UNK         0.0812 
    124 H124       31.9987   -1.9685   -8.2580 H         1 UNK         0.0812 
    125 H125       30.4233    1.5559   -8.8912 H         1 UNK         0.3205 
    126 H126       31.2887    3.5175   -8.5534 H         1 UNK         0.0754 
    127 H127       33.2940    4.3845   -9.6932 H         1 UNK         0.0769 
    128 H128       32.2820    3.5157  -10.8363 H         1 UNK         0.0769 
    129 H129       33.7543    2.7726  -10.2134 H         1 UNK         0.0769 
    130 H130       33.5873    0.8885   -8.0345 H         1 UNK         0.2981 
    131 H131       34.8038    0.2203   -6.3283 H         1 UNK         0.0541 
    132 H132       35.7081    2.8007   -7.8357 H         1 UNK         0.3459 
    133 H133       37.0439    3.3206   -6.8371 H         1 UNK         0.3459 
    134 H134       33.2002    2.0962   -4.5274 H         1 UNK         0.0612 
    135 H135       34.2284    0.8103   -3.9683 H         1 UNK         0.0612 
    136 H136       33.2994   -1.2361   -3.1592 H         1 UNK         0.0624 
    137 H137       33.7554   -1.8746   -4.7248 H         1 UNK         0.0624 
@<TRIPOS>BOND
     1    1    2 1    
     2    1   72 1    
     3    1   73 1    
     4    1   74 1    
     5    2    3 2    
     6    2    4 am   BACKBONE|DICT|INTERRES
     7    4    5 1    
     8    4   75 1    
     9    5    6 1    
    10    5   35 1    
    11    5   76 1    
    12    6    7 1    
    13    6   77 1    
    14    6   78 1    
    15    7    8 1    
    16    8    9 1    
    17    8   79 1    
    18    8   80 1    
    19    9   10 ar   
    20    9   14 ar   
    21   10   11 ar   
    22   10   81 1    
    23   11   12 ar   
    24   11   71 1    
    25   12   13 ar   
    26   12   82 1    
    27   13   14 ar   
    28   13   15 1    
    29   14   83 1    
    30   15   16 1    
    31   15   84 1    
    32   15   85 1    
    33   16   17 1    
    34   17   18 1    
    35   17   86 1    
    36   17   87 1    
    37   18   19 1    
    38   18   37 1    
    39   18   88 1    
    40   19   20 am   BACKBONE|DICT|INTERRES
    41   19   89 1    
    42   20   21 2    
    43   20   22 1    
    44   22   23 1    
    45   22   24 1    
    46   22   90 1    
    47   23   91 1    
    48   23   92 1    
    49   23   93 1    
    50   24   25 am   BACKBONE|DICT|INTERRES
    51   24   94 1    
    52   25   26 2    
    53   25   27 1    
    54   27   28 1    
    55   27   29 1    
    56   27   95 1    
    57   28   96 1    
    58   28   97 1    
    59   28   98 1    
    60   29   30 am   BACKBONE|DICT|INTERRES
    61   29   99 1    
    62   30   31 2    
    63   30   32 1    
    64   32   33 1    
    65   32   34 1    
    66   32  100 1    
    67   33  101 1    
    68   33  102 1    
    69   33  103 1    
    70   34   35 am   BACKBONE|DICT|INTERRES
    71   34  104 1    
    72   35   36 2    
    73   37   38 2    
    74   37   39 am   BACKBONE|DICT|INTERRES
    75   39   40 1    
    76   39  105 1    
    77   40   41 1    
    78   40   42 1    
    79   40  106 1    
    80   41  107 1    
    81   41  108 1    
    82   41  109 1    
    83   42   43 2    
    84   42   44 am   BACKBONE|DICT|INTERRES
    85   44   45 1    
    86   44  110 1    
    87   45   46 1    
    88   45   47 1    
    89   45  111 1    
    90   46  112 1    
    91   46  113 1    
    92   46  114 1    
    93   47   48 2    
    94   47   49 am   BACKBONE|DICT|INTERRES
    95   49   50 1    
    96   49  115 1    
    97   50   51 1    
    98   50   52 1    
    99   50  116 1    
   100   51  117 1    
   101   51  118 1    
   102   51  119 1    
   103   52   53 2    
   104   52   54 am   BACKBONE|DICT|INTERRES
   105   54   55 1    
   106   54  120 1    
   107   55   56 1    
   108   55   57 1    
   109   55  121 1    
   110   56  122 1    
   111   56  123 1    
   112   56  124 1    
   113   57   58 2    
   114   57   59 am   BACKBONE|DICT|INTERRES
   115   59   60 1    
   116   59  125 1    
   117   60   61 1    
   118   60   62 1    
   119   60  126 1    
   120   61  127 1    
   121   61  128 1    
   122   61  129 1    
   123   62   63 2    
   124   62   64 am   BACKBONE|DICT|INTERRES
   125   64   65 1    
   126   64  130 1    
   127   65   66 1    
   128   65   69 1    
   129   65  131 1    
   130   66   67 am   BACKBONE|DICT|INTERRES
   131   66   68 2    
   132   67  132 1    
   133   67  133 1    
   134   69   70 1    
   135   69  134 1    
   136   69  135 1    
   137   70   71 1    
   138   71  136 1    
   139   71  137 1    
@<TRIPOS>SUBSTRUCTURE
     1 UNK         1 GROUP             0       ****    0 ROOT    
