@<TRIPOS>MOLECULE
3R137
137   139    1
SMALL
USER_CHARGES


@<TRIPOS>ATOM
      1 CA         30.3576    0.1894   -0.9792 C.3       0 UNK        -0.2020 
      2 C          29.5497   -0.8785   -1.6996 C.2       0 UNK         0.4855 
      3 O          29.1575   -0.6743   -2.8450 O.2       0 UNK        -0.5197 
      4 N          29.2901   -2.0133   -1.0361 N.am      1 UNK        -0.4892 
      5 CA         28.5923   -3.1755   -1.6091 C.3       1 UNK         0.0835 
      6 C6         28.7784   -4.4566   -0.7536 C.3       12 UNK        -0.0855 
      7 S7         30.5152   -4.7921   -0.2909 S.3       12 UNK        -0.2931 
      8 C8         31.0578   -5.9440   -1.5945 C.3       12 UNK         0.0378 
      9 C9         31.2043   -5.2509   -2.9416 C.ar      12 UNK        -0.0802 
     10 C10        32.2335   -4.3262   -3.1478 C.ar      12 UNK        -0.0944 
     11 C11        32.3641   -3.6680   -4.3747 C.ar      12 UNK        -0.0787 
     12 C12        31.4689   -3.9576   -5.4066 C.ar      12 UNK        -0.0862 
     13 C13        30.4278   -4.8708   -5.2089 C.ar      12 UNK        -0.0733 
     14 C14        30.3073   -5.5239   -3.9787 C.ar      12 UNK        -0.0832 
     15 C15        29.4056   -5.1155   -6.3110 C.3       12 UNK         0.0240 
     16 S16        27.7760   -4.4103   -5.8929 S.3       12 UNK        -0.2522 
     17 C17        28.1855   -2.6563   -5.6029 C.3       12 UNK        -0.0967 
     18 CA         27.4945   -1.7141   -6.6044 C.3       5 UNK         0.0660 
     19 N          26.0474   -1.6365   -6.3890 N.am      5 UNK        -0.4015 
     20 C          25.1811   -1.1004   -7.2586 C.2       4 UNK         0.4946 
     21 O          25.5054   -0.6219   -8.3440 O.2       4 UNK        -0.5353 
     22 CA         23.7075   -1.0456   -6.8278 C.3       4 UNK         0.0277 
     23 CB         23.0804   -2.4495   -6.8208 C.3       4 UNK        -0.1981 
     24 N          23.5309   -0.4134   -5.5199 N.am      4 UNK        -0.4209 
     25 C          23.8648    0.8534   -5.2337 C.2       3 UNK         0.4942 
     26 O          24.3178    1.6502   -6.0562 O.2       3 UNK        -0.5208 
     27 CA         23.6888    1.3050   -3.7733 C.3       3 UNK         0.0250 
     28 CB         22.2785    1.8784   -3.5598 C.3       3 UNK        -0.1990 
     29 N          23.9545    0.2758   -2.7584 N.am      3 UNK        -0.4232 
     30 C          25.0731   -0.4571   -2.6495 C.2       2 UNK         0.4993 
     31 O          25.9814   -0.4411   -3.4837 O.2       2 UNK        -0.5286 
     32 CA         25.1818   -1.3223   -1.3784 C.3       2 UNK         0.0209 
     33 CB         24.0678   -2.3900   -1.3025 C.3       2 UNK        -0.1931 
     34 N          26.5205   -1.9051   -1.2039 N.am      2 UNK        -0.4546 
     35 C          27.0898   -2.9191   -1.8754 C.2       1 UNK         0.5154 
     36 O          26.4911   -3.6466   -2.6679 O.2       1 UNK        -0.5181 
     37 C          28.1568   -0.3295   -6.5443 C.2       5 UNK         0.5014 
     38 O          29.0656   -0.0675   -7.3358 O.2       5 UNK        -0.5248 
     39 N          27.6933    0.5361   -5.6313 N.am      6 UNK        -0.4434 
     40 CA         28.1888    1.9049   -5.4867 C.3       6 UNK         0.0363 
     41 CB         27.4891    2.5996   -4.3108 C.3       6 UNK        -0.1936 
     42 C          28.0512    2.7286   -6.7788 C.2       6 UNK         0.5081 
     43 O          28.9621    3.4895   -7.1065 O.2       6 UNK        -0.5248 
     44 N          26.9423    2.5173   -7.5006 N.am      7 UNK        -0.4718 
     45 CA         26.6919    3.0692   -8.8268 C.3       7 UNK         0.0273 
     46 CB         25.1737    3.1677   -9.0580 C.3       7 UNK        -0.1935 
     47 C          27.3751    2.2494   -9.9352 C.2       7 UNK         0.5018 
     48 O          28.2535    2.7765  -10.6177 O.2       7 UNK        -0.5186 
     49 N          26.9381    0.9958  -10.1311 N.am      8 UNK        -0.4240 
     50 CA         27.2350    0.1983  -11.3269 C.3       8 UNK         0.0235 
     51 CB         26.2341   -0.9630  -11.4431 C.3       8 UNK        -0.2000 
     52 C          28.6729   -0.3318  -11.3978 C.2       8 UNK         0.4941 
     53 O          29.2394   -0.3691  -12.4908 O.2       8 UNK        -0.5273 
     54 N          29.2407   -0.7262  -10.2505 N.am      9 UNK        -0.4262 
     55 CA         30.6306   -1.1846  -10.1437 C.3       9 UNK         0.0264 
     56 CB         30.7154   -2.3361   -9.1241 C.3       9 UNK        -0.1955 
     57 C          31.5870   -0.0367   -9.7718 C.2       9 UNK         0.5031 
     58 O          32.7940   -0.2701   -9.6939 O.2       9 UNK        -0.5390 
     59 N          31.0371    1.1665   -9.5368 N.am      10 UNK        -0.4204 
     60 CA         31.7074    2.3934   -9.0946 C.3       10 UNK         0.0237 
     61 CB         32.6476    2.9319  -10.1945 C.3       10 UNK        -0.1985 
     62 C          32.4035    2.2423   -7.7271 C.2       10 UNK         0.4970 
     63 O          33.4247    2.8900   -7.4883 O.2       10 UNK        -0.4914 
     64 N          31.8457    1.3909   -6.8543 N.am      11 UNK        -0.4285 
     65 CA         32.3775    1.1093   -5.5120 C.3       11 UNK         0.1007 
     66 C          32.1444    2.2513   -4.4709 C.2       11 UNK         0.5703 
     67 N          31.3973    3.3049   -4.7849 N.am      11 UNK        -0.7361 
     68 O          32.6753    2.2026   -3.3647 O.2       11 UNK        -0.4986 
     69 C69        31.9007   -0.2839   -5.0156 C.3       12 UNK        -0.0947 
     70 S70        33.0426   -1.0435   -3.8056 S.3       12 UNK        -0.2240 
     71 C71        33.4658   -2.6378   -4.5776 C.3       12 UNK         0.0194 
     72 H72        31.2723    0.3997   -1.5338 H         1 UNK         0.0906 
     73 H73        29.7826    1.1126   -0.9117 H         1 UNK         0.0906 
     74 H74        30.6342   -0.1169    0.0294 H         1 UNK         0.0906 
     75 H75        29.6584   -2.1465   -0.1046 H         1 UNK         0.3140 
     76 H76        29.0438   -3.3610   -2.5860 H         1 UNK         0.1085 
     77 H77        28.2068   -4.3762    0.1732 H         1 UNK         0.0836 
     78 H78        28.3752   -5.3250   -1.2783 H         1 UNK         0.0836 
     79 H79        32.0210   -6.3689   -1.3082 H         1 UNK         0.0731 
     80 H80        30.3618   -6.7823   -1.6550 H         1 UNK         0.0731 
     81 H81        32.9207   -4.1017   -2.3433 H         1 UNK         0.1312 
     82 H82        31.5646   -3.4471   -6.3546 H         1 UNK         0.1406 
     83 H83        29.4966   -6.2234   -3.8244 H         1 UNK         0.1631 
     84 H84        29.2978   -6.1886   -6.4746 H         1 UNK         0.0717 
     85 H85        29.7441   -4.6926   -7.2580 H         1 UNK         0.0717 
     86 H86        27.9053   -2.3920   -4.5838 H         1 UNK         0.0934 
     87 H87        29.2650   -2.5197   -5.6472 H         1 UNK         0.0934 
     88 H88        27.6623   -2.1020   -7.6118 H         1 UNK         0.0739 
     89 H89        25.7126   -1.9517   -5.4893 H         1 UNK         0.3093 
     90 H90        23.1736   -0.4389   -7.5625 H         1 UNK         0.0818 
     91 H91        22.0104   -2.4040   -6.6171 H         1 UNK         0.0819 
     92 H92        23.2027   -2.9345   -7.7904 H         1 UNK         0.0819 
     93 H93        23.5368   -3.0983   -6.0723 H         1 UNK         0.0819 
     94 H94        23.1701   -0.9896   -4.7739 H         1 UNK         0.3041 
     95 H95        24.4043    2.1095   -3.5982 H         1 UNK         0.0784 
     96 H96        22.0613    2.6621   -4.2874 H         1 UNK         0.0793 
     97 H97        21.5097    1.1121   -3.6673 H         1 UNK         0.0793 
     98 H98        22.1748    2.3232   -2.5699 H         1 UNK         0.0793 
     99 H99        23.2587    0.1895   -2.0315 H         1 UNK         0.3024 
    100 H100       25.0508   -0.6451   -0.5325 H         1 UNK         0.1171 
    101 H101       23.0856   -1.9298   -1.1914 H         1 UNK         0.0786 
    102 H102       24.2086   -3.0503   -0.4467 H         1 UNK         0.0786 
    103 H103       24.0305   -3.0083   -2.1999 H         1 UNK         0.0786 
    104 H104       27.1415   -1.3743   -0.6095 H         1 UNK         0.2977 
    105 H105       27.0052    0.2165   -4.9515 H         1 UNK         0.3127 
    106 H106       29.2480    1.8216   -5.2493 H         1 UNK         0.0770 
    107 H107       26.4304    2.7564   -4.5125 H         1 UNK         0.0814 
    108 H108       27.9331    3.5773   -4.1197 H         1 UNK         0.0814 
    109 H109       27.5786    2.0153   -3.3943 H         1 UNK         0.0814 
    110 H110       26.2347    1.8954   -7.1249 H         1 UNK         0.2983 
    111 H111       27.0996    4.0819   -8.8683 H         1 UNK         0.0947 
    112 H112       24.9524    3.5508  -10.0551 H         1 UNK         0.0806 
    113 H113       24.7111    3.8452   -8.3401 H         1 UNK         0.0806 
    114 H114       24.6803    2.1996   -8.9600 H         1 UNK         0.0806 
    115 H115       26.2791    0.5835   -9.4711 H         1 UNK         0.3000 
    116 H116       27.0881    0.8466  -12.1940 H         1 UNK         0.0850 
    117 H117       26.3757   -1.5071  -12.3780 H         1 UNK         0.0810 
    118 H118       25.2046   -0.6048  -11.4289 H         1 UNK         0.0810 
    119 H119       26.3508   -1.6808  -10.6302 H         1 UNK         0.0810 
    120 H120       28.7339   -0.6187   -9.3791 H         1 UNK         0.3040 
    121 H121       30.9644   -1.5773  -11.1065 H         1 UNK         0.0766 
    122 H122       31.7167   -2.7685   -9.1120 H         1 UNK         0.0812 
    123 H123       30.0207   -3.1384   -9.3729 H         1 UNK         0.0812 
    124 H124       30.4986   -2.0058   -8.1096 H         1 UNK         0.0812 
    125 H125       30.0329    1.2377   -9.6311 H         1 UNK         0.3205 
    126 H126       30.9174    3.1318   -8.9508 H         1 UNK         0.0754 
    127 H127       33.0376    3.9155   -9.9299 H         1 UNK         0.0769 
    128 H128       32.1241    3.0383  -11.1447 H         1 UNK         0.0769 
    129 H129       33.5032    2.2747  -10.3537 H         1 UNK         0.0769 
    130 H130       30.9898    0.9127   -7.1118 H         1 UNK         0.2981 
    131 H131       33.4613    1.0477   -5.6284 H         1 UNK         0.0541 
    132 H132       30.9616    3.3806   -5.6917 H         1 UNK         0.3459 
    133 H133       31.2779    4.0383   -4.1049 H         1 UNK         0.3459 
    134 H134       31.8048   -0.9662   -5.8613 H         1 UNK         0.0612 
    135 H135       30.9033   -0.2171   -4.5848 H         1 UNK         0.0612 
    136 H136       33.6795   -2.4914   -5.6376 H         1 UNK         0.0624 
    137 H137       34.3892   -3.0073   -4.1294 H         1 UNK         0.0624 
@<TRIPOS>BOND
     1    1    2 1    
     2    1   72 1    
     3    1   73 1    
     4    1   74 1    
     5    2    3 2    
     6    2    4 am   BACKBONE|DICT|INTERRES
     7    4    5 1    
     8    4   75 1    
     9    5    6 1    
    10    5   35 1    
    11    5   76 1    
    12    6    7 1    
    13    6   77 1    
    14    6   78 1    
    15    7    8 1    
    16    8    9 1    
    17    8   79 1    
    18    8   80 1    
    19    9   10 ar   
    20    9   14 ar   
    21   10   11 ar   
    22   10   81 1    
    23   11   12 ar   
    24   11   71 1    
    25   12   13 ar   
    26   12   82 1    
    27   13   14 ar   
    28   13   15 1    
    29   14   83 1    
    30   15   16 1    
    31   15   84 1    
    32   15   85 1    
    33   16   17 1    
    34   17   18 1    
    35   17   86 1    
    36   17   87 1    
    37   18   19 1    
    38   18   37 1    
    39   18   88 1    
    40   19   20 am   BACKBONE|DICT|INTERRES
    41   19   89 1    
    42   20   21 2    
    43   20   22 1    
    44   22   23 1    
    45   22   24 1    
    46   22   90 1    
    47   23   91 1    
    48   23   92 1    
    49   23   93 1    
    50   24   25 am   BACKBONE|DICT|INTERRES
    51   24   94 1    
    52   25   26 2    
    53   25   27 1    
    54   27   28 1    
    55   27   29 1    
    56   27   95 1    
    57   28   96 1    
    58   28   97 1    
    59   28   98 1    
    60   29   30 am   BACKBONE|DICT|INTERRES
    61   29   99 1    
    62   30   31 2    
    63   30   32 1    
    64   32   33 1    
    65   32   34 1    
    66   32  100 1    
    67   33  101 1    
    68   33  102 1    
    69   33  103 1    
    70   34   35 am   BACKBONE|DICT|INTERRES
    71   34  104 1    
    72   35   36 2    
    73   37   38 2    
    74   37   39 am   BACKBONE|DICT|INTERRES
    75   39   40 1    
    76   39  105 1    
    77   40   41 1    
    78   40   42 1    
    79   40  106 1    
    80   41  107 1    
    81   41  108 1    
    82   41  109 1    
    83   42   43 2    
    84   42   44 am   BACKBONE|DICT|INTERRES
    85   44   45 1    
    86   44  110 1    
    87   45   46 1    
    88   45   47 1    
    89   45  111 1    
    90   46  112 1    
    91   46  113 1    
    92   46  114 1    
    93   47   48 2    
    94   47   49 am   BACKBONE|DICT|INTERRES
    95   49   50 1    
    96   49  115 1    
    97   50   51 1    
    98   50   52 1    
    99   50  116 1    
   100   51  117 1    
   101   51  118 1    
   102   51  119 1    
   103   52   53 2    
   104   52   54 am   BACKBONE|DICT|INTERRES
   105   54   55 1    
   106   54  120 1    
   107   55   56 1    
   108   55   57 1    
   109   55  121 1    
   110   56  122 1    
   111   56  123 1    
   112   56  124 1    
   113   57   58 2    
   114   57   59 am   BACKBONE|DICT|INTERRES
   115   59   60 1    
   116   59  125 1    
   117   60   61 1    
   118   60   62 1    
   119   60  126 1    
   120   61  127 1    
   121   61  128 1    
   122   61  129 1    
   123   62   63 2    
   124   62   64 am   BACKBONE|DICT|INTERRES
   125   64   65 1    
   126   64  130 1    
   127   65   66 1    
   128   65   69 1    
   129   65  131 1    
   130   66   67 am   BACKBONE|DICT|INTERRES
   131   66   68 2    
   132   67  132 1    
   133   67  133 1    
   134   69   70 1    
   135   69  134 1    
   136   69  135 1    
   137   70   71 1    
   138   71  136 1    
   139   71  137 1    
@<TRIPOS>SUBSTRUCTURE
     1 UNK         1 GROUP             0       ****    0 ROOT    
