@<TRIPOS>MOLECULE
3R137
137   139    1
SMALL
USER_CHARGES


@<TRIPOS>ATOM
      1 CA         26.6539   -5.3193    0.8148 C.3       0 UNK        -0.2020 
      2 C          26.6874   -4.0339    0.0027 C.2       0 UNK         0.4855 
      3 O          26.0699   -3.9677   -1.0587 O.2       0 UNK        -0.5197 
      4 N          27.3852   -3.0068    0.5059 N.am      1 UNK        -0.4892 
      5 CA         27.6395   -1.6847   -0.0984 C.3       1 UNK         0.0835 
      6 C6         28.4194   -1.7452   -1.4388 C.3       12 UNK        -0.0855 
      7 S7         30.0789   -2.4709   -1.2189 S.3       12 UNK        -0.2931 
      8 C8         29.9525   -4.0408   -2.1442 C.3       12 UNK         0.0378 
      9 C9         30.3533   -3.9492   -3.6175 C.ar      12 UNK        -0.0802 
     10 C10        31.3939   -3.1151   -4.0449 C.ar      12 UNK        -0.0944 
     11 C11        31.7983   -3.0980   -5.3835 C.ar      12 UNK        -0.0787 
     12 C12        31.1666   -3.9435   -6.3014 C.ar      12 UNK        -0.0862 
     13 C13        30.1453   -4.8046   -5.8869 C.ar      12 UNK        -0.0733 
     14 C14        29.7335   -4.7886   -4.5494 C.ar      12 UNK        -0.0832 
     15 C15        29.5459   -5.8148   -6.8604 C.3       12 UNK         0.0240 
     16 S16        28.5682   -5.0520   -8.1930 S.3       12 UNK        -0.2522 
     17 C17        27.1583   -4.3582   -7.2659 C.3       12 UNK        -0.0967 
     18 CA         26.6882   -2.9891   -7.8246 C.3       5 UNK         0.0660 
     19 N          25.3892   -2.5539   -7.2980 N.am      5 UNK        -0.4015 
     20 C          25.0668   -2.3469   -6.0149 C.2       4 UNK         0.4946 
     21 O          25.8121   -2.5976   -5.0639 O.2       4 UNK        -0.5353 
     22 CA         23.6933   -1.7098   -5.7539 C.3       4 UNK         0.0277 
     23 CB         22.6870   -2.7719   -5.2838 C.3       4 UNK        -0.1981 
     24 N          23.7690   -0.6445   -4.7528 N.am      4 UNK        -0.4209 
     25 C          24.5660    0.4309   -4.7922 C.2       3 UNK         0.4942 
     26 O          25.3197    0.6880   -5.7319 O.2       3 UNK        -0.5208 
     27 CA         24.5315    1.3852   -3.5834 C.3       3 UNK         0.0250 
     28 CB         23.3814    2.4011   -3.7194 C.3       3 UNK        -0.1990 
     29 N          24.5169    0.7288   -2.2654 N.am      3 UNK        -0.4232 
     30 C          23.5877   -0.0637   -1.7111 C.2       2 UNK         0.4993 
     31 O          22.5368   -0.3811   -2.2720 O.2       2 UNK        -0.5286 
     32 CA         23.9065   -0.6179   -0.3077 C.3       2 UNK         0.0209 
     33 CB         22.8073   -1.5585    0.2220 C.3       2 UNK        -0.1931 
     34 N          25.1881   -1.3288   -0.2648 N.am      2 UNK        -0.4546 
     35 C          26.4012   -0.7666   -0.2150 C.2       1 UNK         0.5154 
     36 O          26.5659    0.4545   -0.2450 O.2       1 UNK        -0.5181 
     37 C          27.7637   -1.8891   -7.6978 C.2       5 UNK         0.5014 
     38 O          28.3564   -1.5135   -8.7089 O.2       5 UNK        -0.5248 
     39 N          27.9796   -1.3714   -6.4829 N.am      6 UNK        -0.4434 
     40 CA         29.0143   -0.3919   -6.1524 C.3       6 UNK         0.0363 
     41 CB         29.0022   -0.1179   -4.6439 C.3       6 UNK        -0.1936 
     42 C          28.9334    0.9180   -6.9511 C.2       6 UNK         0.5081 
     43 O          29.9692    1.4160   -7.3931 O.2       6 UNK        -0.5248 
     44 N          27.7145    1.4336   -7.1629 N.am      7 UNK        -0.4718 
     45 CA         27.4609    2.6266   -7.9765 C.3       7 UNK         0.0273 
     46 CB         26.0306    3.1276   -7.7214 C.3       7 UNK        -0.1935 
     47 C          27.6909    2.4005   -9.4816 C.2       7 UNK         0.5018 
     48 O          28.0485    3.3498  -10.1791 O.2       7 UNK        -0.5186 
     49 N          27.4940    1.1611   -9.9547 N.am      8 UNK        -0.4240 
     50 CA         27.7547    0.7557  -11.3385 C.3       8 UNK         0.0235 
     51 CB         26.9201   -0.4877  -11.6886 C.3       8 UNK        -0.2000 
     52 C          29.2517    0.5028  -11.5739 C.2       8 UNK         0.4941 
     53 O          29.7808    0.9162  -12.6060 O.2       8 UNK        -0.5273 
     54 N          29.9100   -0.1435  -10.6006 N.am      9 UNK        -0.4262 
     55 CA         31.3578   -0.3635  -10.5613 C.3       9 UNK         0.0264 
     56 CB         31.6825   -1.3597   -9.4352 C.3       9 UNK        -0.1955 
     57 C          32.1621    0.9358  -10.3717 C.2       9 UNK         0.5031 
     58 O          33.3074    1.0014  -10.8201 O.2       9 UNK        -0.5390 
     59 N          31.5507    1.9269   -9.7049 N.am      10 UNK        -0.4204 
     60 CA         32.0996    3.2297   -9.3142 C.3       10 UNK         0.0237 
     61 CB         32.4627    4.0809  -10.5498 C.3       10 UNK        -0.1985 
     62 C          33.2508    3.1003   -8.2984 C.2       10 UNK         0.4970 
     63 O          34.1922    3.8952   -8.3291 O.2       10 UNK        -0.4914 
     64 N          33.1513    2.0976   -7.4165 N.am      11 UNK        -0.4285 
     65 CA         34.1344    1.7998   -6.3648 C.3       11 UNK         0.1007 
     66 C          33.9752    2.6502   -5.0705 C.2       11 UNK         0.5703 
     67 N          32.9200    3.4429   -4.9196 N.am      11 UNK        -0.7361 
     68 O          34.8375    2.6053   -4.1960 O.2       11 UNK        -0.4986 
     69 C69        34.2121    0.2773   -6.0765 C.3       12 UNK        -0.0947 
     70 S70        32.6305   -0.4502   -5.5367 S.3       12 UNK        -0.2240 
     71 C71        32.9621   -2.2160   -5.8182 C.3       12 UNK         0.0194 
     72 H72        25.6273   -5.5671    1.0833 H         1 UNK         0.0906 
     73 H73        27.0607   -6.1424    0.2279 H         1 UNK         0.0906 
     74 H74        27.2352   -5.2387    1.7330 H         1 UNK         0.0906 
     75 H75        27.8342   -3.1364    1.4026 H         1 UNK         0.3140 
     76 H76        28.2840   -1.1733    0.6191 H         1 UNK         0.1085 
     77 H77        27.8593   -2.2880   -2.2027 H         1 UNK         0.0836 
     78 H78        28.5666   -0.7374   -1.8306 H         1 UNK         0.0836 
     79 H79        30.6100   -4.7675   -1.6655 H         1 UNK         0.0731 
     80 H80        28.9406   -4.4361   -2.0439 H         1 UNK         0.0731 
     81 H81        31.9077   -2.4831   -3.3340 H         1 UNK         0.1312 
     82 H82        31.4896   -3.9593   -7.3334 H         1 UNK         0.1406 
     83 H83        28.9541   -5.4639   -4.2226 H         1 UNK         0.1631 
     84 H84        28.9208   -6.5389   -6.3353 H         1 UNK         0.0717 
     85 H85        30.3561   -6.3891   -7.3118 H         1 UNK         0.0717 
     86 H86        26.3418   -5.0797   -7.3190 H         1 UNK         0.0934 
     87 H87        27.4149   -4.2770   -6.2093 H         1 UNK         0.0934 
     88 H88        26.5186   -3.1233   -8.8946 H         1 UNK         0.0739 
     89 H89        24.7104   -2.3015   -8.0026 H         1 UNK         0.3093 
     90 H90        23.3252   -1.2603   -6.6782 H         1 UNK         0.0818 
     91 H91        21.6960   -2.3426   -5.1352 H         1 UNK         0.0819 
     92 H92        22.5873   -3.5715   -6.0191 H         1 UNK         0.0819 
     93 H93        22.9980   -3.2294   -4.3432 H         1 UNK         0.0819 
     94 H94        23.1932   -0.7503   -3.9200 H         1 UNK         0.3041 
     95 H95        25.4661    1.9479   -3.6145 H         1 UNK         0.0784 
     96 H96        23.4531    2.9443   -4.6628 H         1 UNK         0.0793 
     97 H97        22.4042    1.9178   -3.6979 H         1 UNK         0.0793 
     98 H98        23.4082    3.1392   -2.9179 H         1 UNK         0.0793 
     99 H99        25.3527    0.8760   -1.7051 H         1 UNK         0.3024 
    100 H100       23.9604    0.2412    0.3652 H         1 UNK         0.1171 
    101 H101       22.6983   -2.4442   -0.4055 H         1 UNK         0.0786 
    102 H102       21.8397   -1.0554    0.2495 H         1 UNK         0.0786 
    103 H103       23.0253   -1.8915    1.2369 H         1 UNK         0.0786 
    104 H104       25.1604   -2.3394   -0.3538 H         1 UNK         0.2977 
    105 H105       27.4009   -1.7179   -5.7218 H         1 UNK         0.3127 
    106 H106       29.9651   -0.8603   -6.4057 H         1 UNK         0.0770 
    107 H107       29.2386   -1.0264   -4.0915 H         1 UNK         0.0814 
    108 H108       28.0325    0.2487   -4.3050 H         1 UNK         0.0814 
    109 H109       29.7528    0.6262   -4.3737 H         1 UNK         0.0814 
    110 H110       26.9059    0.9958   -6.7244 H         1 UNK         0.2983 
    111 H111       28.1555    3.4063   -7.6557 H         1 UNK         0.0947 
    112 H112       25.8248    4.0337   -8.2929 H         1 UNK         0.0806 
    113 H113       25.8763    3.3661   -6.6689 H         1 UNK         0.0806 
    114 H114       25.2859    2.3835   -8.0074 H         1 UNK         0.0806 
    115 H115       27.2641    0.4277   -9.2980 H         1 UNK         0.3000 
    116 H116       27.4443    1.5646  -12.0040 H         1 UNK         0.0850 
    117 H117       27.0705   -0.7732  -12.7306 H         1 UNK         0.0810 
    118 H118       25.8546   -0.2999  -11.5557 H         1 UNK         0.0810 
    119 H119       27.1881   -1.3487  -11.0762 H         1 UNK         0.0810 
    120 H120       29.3701   -0.5275   -9.8252 H         1 UNK         0.3040 
    121 H121       31.6585   -0.8055  -11.5133 H         1 UNK         0.0766 
    122 H122       32.7523   -1.5686   -9.3930 H         1 UNK         0.0812 
    123 H123       31.1701   -2.3103   -9.5853 H         1 UNK         0.0812 
    124 H124       31.3862   -0.9741   -8.4591 H         1 UNK         0.0812 
    125 H125       30.6525    1.7086   -9.2856 H         1 UNK         0.3205 
    126 H126       31.2941    3.7448   -8.7887 H         1 UNK         0.0754 
    127 H127       32.7262    5.0986  -10.2594 H         1 UNK         0.0769 
    128 H128       31.6235    4.1492  -11.2423 H         1 UNK         0.0769 
    129 H129       33.3135    3.6680  -11.0926 H         1 UNK         0.0769 
    130 H130       32.3168    1.5250   -7.4186 H         1 UNK         0.2981 
    131 H131       35.1155    2.0772   -6.7547 H         1 UNK         0.0541 
    132 H132       32.2047    3.4789   -5.6273 H         1 UNK         0.3459 
    133 H133       32.8326    3.9945   -4.0811 H         1 UNK         0.3459 
    134 H134       34.9719    0.0622   -5.3230 H         1 UNK         0.0612 
    135 H135       34.5359   -0.2399   -6.9811 H         1 UNK         0.0612 
    136 H136       33.1896   -2.3692   -6.8740 H         1 UNK         0.0624 
    137 H137       33.8540   -2.5056   -5.2609 H         1 UNK         0.0624 
@<TRIPOS>BOND
     1    1    2 1    
     2    1   72 1    
     3    1   73 1    
     4    1   74 1    
     5    2    3 2    
     6    2    4 am   BACKBONE|DICT|INTERRES
     7    4    5 1    
     8    4   75 1    
     9    5    6 1    
    10    5   35 1    
    11    5   76 1    
    12    6    7 1    
    13    6   77 1    
    14    6   78 1    
    15    7    8 1    
    16    8    9 1    
    17    8   79 1    
    18    8   80 1    
    19    9   10 ar   
    20    9   14 ar   
    21   10   11 ar   
    22   10   81 1    
    23   11   12 ar   
    24   11   71 1    
    25   12   13 ar   
    26   12   82 1    
    27   13   14 ar   
    28   13   15 1    
    29   14   83 1    
    30   15   16 1    
    31   15   84 1    
    32   15   85 1    
    33   16   17 1    
    34   17   18 1    
    35   17   86 1    
    36   17   87 1    
    37   18   19 1    
    38   18   37 1    
    39   18   88 1    
    40   19   20 am   BACKBONE|DICT|INTERRES
    41   19   89 1    
    42   20   21 2    
    43   20   22 1    
    44   22   23 1    
    45   22   24 1    
    46   22   90 1    
    47   23   91 1    
    48   23   92 1    
    49   23   93 1    
    50   24   25 am   BACKBONE|DICT|INTERRES
    51   24   94 1    
    52   25   26 2    
    53   25   27 1    
    54   27   28 1    
    55   27   29 1    
    56   27   95 1    
    57   28   96 1    
    58   28   97 1    
    59   28   98 1    
    60   29   30 am   BACKBONE|DICT|INTERRES
    61   29   99 1    
    62   30   31 2    
    63   30   32 1    
    64   32   33 1    
    65   32   34 1    
    66   32  100 1    
    67   33  101 1    
    68   33  102 1    
    69   33  103 1    
    70   34   35 am   BACKBONE|DICT|INTERRES
    71   34  104 1    
    72   35   36 2    
    73   37   38 2    
    74   37   39 am   BACKBONE|DICT|INTERRES
    75   39   40 1    
    76   39  105 1    
    77   40   41 1    
    78   40   42 1    
    79   40  106 1    
    80   41  107 1    
    81   41  108 1    
    82   41  109 1    
    83   42   43 2    
    84   42   44 am   BACKBONE|DICT|INTERRES
    85   44   45 1    
    86   44  110 1    
    87   45   46 1    
    88   45   47 1    
    89   45  111 1    
    90   46  112 1    
    91   46  113 1    
    92   46  114 1    
    93   47   48 2    
    94   47   49 am   BACKBONE|DICT|INTERRES
    95   49   50 1    
    96   49  115 1    
    97   50   51 1    
    98   50   52 1    
    99   50  116 1    
   100   51  117 1    
   101   51  118 1    
   102   51  119 1    
   103   52   53 2    
   104   52   54 am   BACKBONE|DICT|INTERRES
   105   54   55 1    
   106   54  120 1    
   107   55   56 1    
   108   55   57 1    
   109   55  121 1    
   110   56  122 1    
   111   56  123 1    
   112   56  124 1    
   113   57   58 2    
   114   57   59 am   BACKBONE|DICT|INTERRES
   115   59   60 1    
   116   59  125 1    
   117   60   61 1    
   118   60   62 1    
   119   60  126 1    
   120   61  127 1    
   121   61  128 1    
   122   61  129 1    
   123   62   63 2    
   124   62   64 am   BACKBONE|DICT|INTERRES
   125   64   65 1    
   126   64  130 1    
   127   65   66 1    
   128   65   69 1    
   129   65  131 1    
   130   66   67 am   BACKBONE|DICT|INTERRES
   131   66   68 2    
   132   67  132 1    
   133   67  133 1    
   134   69   70 1    
   135   69  134 1    
   136   69  135 1    
   137   70   71 1    
   138   71  136 1    
   139   71  137 1    
@<TRIPOS>SUBSTRUCTURE
     1 UNK         1 GROUP             0       ****    0 ROOT    
