@<TRIPOS>MOLECULE
3R137
137   139    1
SMALL
USER_CHARGES


@<TRIPOS>ATOM
      1 CA         26.7284   -6.1377   -3.8884 C.3       0 UNK        -0.2020 
      2 C          26.6132   -5.3450   -2.5971 C.2       0 UNK         0.4855 
      3 O          26.1891   -5.8961   -1.5809 O.2       0 UNK        -0.5197 
      4 N          26.9604   -4.0535   -2.6293 N.am      1 UNK        -0.4892 
      5 CA         26.7357   -3.1198   -1.5274 C.3       1 UNK         0.0835 
      6 C6         27.8292   -3.1759   -0.4240 C.3       12 UNK        -0.0855 
      7 S7         29.4532   -2.4720   -0.8831 S.3       12 UNK        -0.2931 
      8 C8         30.5188   -3.9426   -1.0150 C.3       12 UNK         0.0378 
      9 C9         31.1564   -4.0006   -2.3913 C.ar      12 UNK        -0.0802 
     10 C10        32.2833   -3.2236   -2.6765 C.ar      12 UNK        -0.0944 
     11 C11        32.8412   -3.2182   -3.9584 C.ar      12 UNK        -0.0787 
     12 C12        32.2696   -4.0236   -4.9510 C.ar      12 UNK        -0.0862 
     13 C13        31.1274   -4.7837   -4.6831 C.ar      12 UNK        -0.0733 
     14 C14        30.5892   -4.7890   -3.3943 C.ar      12 UNK        -0.0832 
     15 C15        30.4144   -5.5097   -5.8156 C.3       12 UNK         0.0240 
     16 S16        28.8391   -4.6974   -6.2715 S.3       12 UNK        -0.2522 
     17 C17        29.2125   -2.9315   -6.0099 C.3       12 UNK        -0.0967 
     18 CA         28.1969   -1.9681   -6.6581 C.3       5 UNK         0.0660 
     19 N          26.8442   -2.0712   -6.1051 N.am      5 UNK        -0.4015 
     20 C          25.7836   -2.4996   -6.7977 C.2       4 UNK         0.4946 
     21 O          25.8503   -3.0731   -7.8853 O.2       4 UNK        -0.5353 
     22 CA         24.3984   -2.2136   -6.1966 C.3       4 UNK         0.0277 
     23 CB         23.9985   -3.3337   -5.2219 C.3       4 UNK        -0.1981 
     24 N          24.2556   -0.9172   -5.5222 N.am      4 UNK        -0.4209 
     25 C          24.5854    0.3024   -5.9739 C.2       3 UNK         0.4942 
     26 O          25.1997    0.5219   -7.0188 O.2       3 UNK        -0.5208 
     27 CA         24.1982    1.4966   -5.0808 C.3       3 UNK         0.0250 
     28 CB         22.6767    1.7421   -5.0856 C.3       3 UNK        -0.1990 
     29 N          24.7452    1.4085   -3.7216 N.am      3 UNK        -0.4232 
     30 C          24.4702    0.5000   -2.7776 C.2       2 UNK         0.4993 
     31 O          23.5696   -0.3398   -2.8583 O.2       2 UNK        -0.5286 
     32 CA         25.4049    0.4869   -1.5596 C.3       2 UNK         0.0209 
     33 CB         24.7005    1.0833   -0.3306 C.3       2 UNK        -0.1931 
     34 N          25.8553   -0.8713   -1.2506 N.am      2 UNK        -0.4546 
     35 C          26.4853   -1.7092   -2.0890 C.2       1 UNK         0.5154 
     36 O          26.8461   -1.4186   -3.2410 O.2       1 UNK        -0.5181 
     37 C          28.7083   -0.5302   -6.5001 C.2       5 UNK         0.5014 
     38 O          29.3836   -0.0367   -7.4054 O.2       5 UNK        -0.5248 
     39 N          28.4097    0.1158   -5.3597 N.am      6 UNK        -0.4434 
     40 CA         28.9794    1.4133   -4.9852 C.3       6 UNK         0.0363 
     41 CB         28.4992    1.8143   -3.5850 C.3       6 UNK        -0.1936 
     42 C          28.7272    2.5495   -5.9921 C.2       6 UNK         0.5081 
     43 O          29.6028    3.4008   -6.1505 O.2       6 UNK        -0.5248 
     44 N          27.5712    2.5193   -6.6698 N.am      7 UNK        -0.4718 
     45 CA         27.2411    3.4290   -7.7666 C.3       7 UNK         0.0273 
     46 CB         25.8335    4.0163   -7.5686 C.3       7 UNK        -0.1935 
     47 C          27.3410    2.7022   -9.1126 C.2       7 UNK         0.5018 
     48 O          28.0157    3.2026  -10.0111 O.2       7 UNK        -0.5186 
     49 N          26.6911    1.5336   -9.2301 N.am      8 UNK        -0.4240 
     50 CA         26.5414    0.7817  -10.4820 C.3       8 UNK         0.0235 
     51 CB         25.5843   -0.3966  -10.2565 C.3       8 UNK        -0.2000 
     52 C          27.8587    0.2915  -11.1080 C.2       8 UNK         0.4941 
     53 O          27.9588    0.2630  -12.3353 O.2       8 UNK        -0.5273 
     54 N          28.8422   -0.0601  -10.2701 N.am      9 UNK        -0.4262 
     55 CA         30.2050   -0.4124  -10.6805 C.3       9 UNK         0.0264 
     56 CB         30.5790   -1.7714  -10.0586 C.3       9 UNK        -0.1955 
     57 C          31.2138    0.6797  -10.2760 C.2       9 UNK         0.5031 
     58 O          32.4156    0.4742  -10.4513 O.2       9 UNK        -0.5390 
     59 N          30.7187    1.8029   -9.7283 N.am      10 UNK        -0.4204 
     60 CA         31.4582    2.9389   -9.1655 C.3       10 UNK         0.0237 
     61 CB         32.1417    3.7450  -10.2902 C.3       10 UNK        -0.1985 
     62 C          32.4312    2.5453   -8.0336 C.2       10 UNK         0.4970 
     63 O          33.4760    3.1820   -7.8831 O.2       10 UNK        -0.4914 
     64 N          32.0872    1.4981   -7.2697 N.am      11 UNK        -0.4285 
     65 CA         32.9423    0.9248   -6.2181 C.3       11 UNK         0.1007 
     66 C          33.0294    1.7552   -4.9028 C.2       11 UNK         0.5703 
     67 N          32.2485    2.8153   -4.7253 N.am      11 UNK        -0.7361 
     68 O          33.8336    1.4401   -4.0295 O.2       11 UNK        -0.4986 
     69 C69        32.5986   -0.5719   -5.9656 C.3       12 UNK        -0.0947 
     70 S70        34.0888   -1.6265   -5.9317 S.3       12 UNK        -0.2240 
     71 C71        34.0469   -2.3233   -4.2441 C.3       12 UNK         0.0194 
     72 H72        26.5015   -5.5140   -4.7522 H         1 UNK         0.0906 
     73 H73        27.7317   -6.5462   -4.0011 H         1 UNK         0.0906 
     74 H74        26.0230   -6.9683   -3.8891 H         1 UNK         0.0906 
     75 H75        27.2949   -3.6180   -3.4790 H         1 UNK         0.3140 
     76 H76        25.7915   -3.4085   -1.0584 H         1 UNK         0.1085 
     77 H77        27.4839   -2.6258    0.4528 H         1 UNK         0.0836 
     78 H78        27.9483   -4.2019   -0.0745 H         1 UNK         0.0836 
     79 H79        31.2927   -3.8933   -0.2476 H         1 UNK         0.0731 
     80 H80        29.9567   -4.8572   -0.8226 H         1 UNK         0.0731 
     81 H81        32.7085   -2.5998   -1.9018 H         1 UNK         0.1312 
     82 H82        32.6806   -4.0209   -5.9508 H         1 UNK         0.1406 
     83 H83        29.6970   -5.3623   -3.1876 H         1 UNK         0.1631 
     84 H84        30.2146   -6.5418   -5.5244 H         1 UNK         0.0717 
     85 H85        31.0506   -5.5581   -6.7006 H         1 UNK         0.0717 
     86 H86        29.2790   -2.7444   -4.9359 H         1 UNK         0.0934 
     87 H87        30.2077   -2.7457   -6.4192 H         1 UNK         0.0934 
     88 H88        28.1784   -2.1699   -7.7316 H         1 UNK         0.0739 
     89 H89        26.6859   -1.6658   -5.1889 H         1 UNK         0.3093 
     90 H90        23.6875   -2.2132   -7.0252 H         1 UNK         0.0818 
     91 H91        22.9613   -3.2297   -4.9031 H         1 UNK         0.0819 
     92 H92        24.0957   -4.3153   -5.6883 H         1 UNK         0.0819 
     93 H93        24.6232   -3.3316   -4.3282 H         1 UNK         0.0819 
     94 H94        23.8174   -0.9381   -4.6033 H         1 UNK         0.3041 
     95 H95        24.6630    2.3803   -5.5161 H         1 UNK         0.0784 
     96 H96        22.3146    1.9038   -6.1017 H         1 UNK         0.0793 
     97 H97        22.1181    0.9006   -4.6753 H         1 UNK         0.0793 
     98 H98        22.4183    2.6280   -4.5056 H         1 UNK         0.0793 
     99 H99        25.4839    2.0691   -3.5281 H         1 UNK         0.3024 
    100 H100       26.2928    1.0832   -1.7713 H         1 UNK         0.1171 
    101 H101       24.3752    2.1063   -0.5247 H         1 UNK         0.0786 
    102 H102       25.3650    1.1152    0.5332 H         1 UNK         0.0786 
    103 H103       23.8159    0.5079   -0.0536 H         1 UNK         0.0786 
    104 H104       25.5960   -1.2172   -0.3384 H         1 UNK         0.2977 
    105 H105       27.8925   -0.3679   -4.6333 H         1 UNK         0.3127 
    106 H106       30.0567    1.2601   -4.9316 H         1 UNK         0.0770 
    107 H107       27.4404    2.0625   -3.5844 H         1 UNK         0.0814 
    108 H108       29.0368    2.6954   -3.2317 H         1 UNK         0.0814 
    109 H109       28.6690    1.0193   -2.8580 H         1 UNK         0.0814 
    110 H110       26.9403    1.7432   -6.5164 H         1 UNK         0.2983 
    111 H111       27.9442    4.2650   -7.7903 H         1 UNK         0.0947 
    112 H112       25.6197    4.7665   -8.3311 H         1 UNK         0.0806 
    113 H113       25.7405    4.5066   -6.5996 H         1 UNK         0.0806 
    114 H114       25.0546    3.2571   -7.6412 H         1 UNK         0.0806 
    115 H115       26.1570    1.1857   -8.4358 H         1 UNK         0.3000 
    116 H116       26.0768    1.4566  -11.2042 H         1 UNK         0.0850 
    117 H117       25.4040   -0.9405  -11.1847 H         1 UNK         0.0810 
    118 H118       24.6170   -0.0614   -9.8816 H         1 UNK         0.0810 
    119 H119       25.9949   -1.1041   -9.5381 H         1 UNK         0.0810 
    120 H120       28.6908   -0.0051   -9.2672 H         1 UNK         0.3040 
    121 H121       30.2655   -0.5110  -11.7661 H         1 UNK         0.0766 
    122 H122       31.5505   -2.1110  -10.4198 H         1 UNK         0.0812 
    123 H123       29.8517   -2.5407  -10.3181 H         1 UNK         0.0812 
    124 H124       30.6402   -1.7209   -8.9717 H         1 UNK         0.0812 
    125 H125       29.7111    1.8976   -9.6972 H         1 UNK         0.3205 
    126 H126       30.7107    3.5865   -8.7051 H         1 UNK         0.0754 
    127 H127       32.5812    4.6654   -9.9036 H         1 UNK         0.0769 
    128 H128       31.4269    4.0299  -11.0624 H         1 UNK         0.0769 
    129 H129       32.9412    3.1760  -10.7659 H         1 UNK         0.0769 
    130 H130       31.2011    1.0351   -7.4364 H         1 UNK         0.2981 
    131 H131       33.9547    0.9635   -6.6248 H         1 UNK         0.0541 
    132 H132       31.5656    3.0849   -5.4223 H         1 UNK         0.3459 
    133 H133       32.3329    3.3467   -3.8740 H         1 UNK         0.3459 
    134 H134       31.9767   -0.9651   -6.7711 H         1 UNK         0.0612 
    135 H135       32.0088   -0.7067   -5.0568 H         1 UNK         0.0612 
    136 H136       34.9549   -2.9062   -4.0871 H         1 UNK         0.0624 
    137 H137       34.0821   -1.4947   -3.5347 H         1 UNK         0.0624 
@<TRIPOS>BOND
     1    1    2 1    
     2    1   72 1    
     3    1   73 1    
     4    1   74 1    
     5    2    3 2    
     6    2    4 am   BACKBONE|DICT|INTERRES
     7    4    5 1    
     8    4   75 1    
     9    5    6 1    
    10    5   35 1    
    11    5   76 1    
    12    6    7 1    
    13    6   77 1    
    14    6   78 1    
    15    7    8 1    
    16    8    9 1    
    17    8   79 1    
    18    8   80 1    
    19    9   10 ar   
    20    9   14 ar   
    21   10   11 ar   
    22   10   81 1    
    23   11   12 ar   
    24   11   71 1    
    25   12   13 ar   
    26   12   82 1    
    27   13   14 ar   
    28   13   15 1    
    29   14   83 1    
    30   15   16 1    
    31   15   84 1    
    32   15   85 1    
    33   16   17 1    
    34   17   18 1    
    35   17   86 1    
    36   17   87 1    
    37   18   19 1    
    38   18   37 1    
    39   18   88 1    
    40   19   20 am   BACKBONE|DICT|INTERRES
    41   19   89 1    
    42   20   21 2    
    43   20   22 1    
    44   22   23 1    
    45   22   24 1    
    46   22   90 1    
    47   23   91 1    
    48   23   92 1    
    49   23   93 1    
    50   24   25 am   BACKBONE|DICT|INTERRES
    51   24   94 1    
    52   25   26 2    
    53   25   27 1    
    54   27   28 1    
    55   27   29 1    
    56   27   95 1    
    57   28   96 1    
    58   28   97 1    
    59   28   98 1    
    60   29   30 am   BACKBONE|DICT|INTERRES
    61   29   99 1    
    62   30   31 2    
    63   30   32 1    
    64   32   33 1    
    65   32   34 1    
    66   32  100 1    
    67   33  101 1    
    68   33  102 1    
    69   33  103 1    
    70   34   35 am   BACKBONE|DICT|INTERRES
    71   34  104 1    
    72   35   36 2    
    73   37   38 2    
    74   37   39 am   BACKBONE|DICT|INTERRES
    75   39   40 1    
    76   39  105 1    
    77   40   41 1    
    78   40   42 1    
    79   40  106 1    
    80   41  107 1    
    81   41  108 1    
    82   41  109 1    
    83   42   43 2    
    84   42   44 am   BACKBONE|DICT|INTERRES
    85   44   45 1    
    86   44  110 1    
    87   45   46 1    
    88   45   47 1    
    89   45  111 1    
    90   46  112 1    
    91   46  113 1    
    92   46  114 1    
    93   47   48 2    
    94   47   49 am   BACKBONE|DICT|INTERRES
    95   49   50 1    
    96   49  115 1    
    97   50   51 1    
    98   50   52 1    
    99   50  116 1    
   100   51  117 1    
   101   51  118 1    
   102   51  119 1    
   103   52   53 2    
   104   52   54 am   BACKBONE|DICT|INTERRES
   105   54   55 1    
   106   54  120 1    
   107   55   56 1    
   108   55   57 1    
   109   55  121 1    
   110   56  122 1    
   111   56  123 1    
   112   56  124 1    
   113   57   58 2    
   114   57   59 am   BACKBONE|DICT|INTERRES
   115   59   60 1    
   116   59  125 1    
   117   60   61 1    
   118   60   62 1    
   119   60  126 1    
   120   61  127 1    
   121   61  128 1    
   122   61  129 1    
   123   62   63 2    
   124   62   64 am   BACKBONE|DICT|INTERRES
   125   64   65 1    
   126   64  130 1    
   127   65   66 1    
   128   65   69 1    
   129   65  131 1    
   130   66   67 am   BACKBONE|DICT|INTERRES
   131   66   68 2    
   132   67  132 1    
   133   67  133 1    
   134   69   70 1    
   135   69  134 1    
   136   69  135 1    
   137   70   71 1    
   138   71  136 1    
   139   71  137 1    
@<TRIPOS>SUBSTRUCTURE
     1 UNK         1 GROUP             0       ****    0 ROOT    
