@<TRIPOS>MOLECULE
3R137
137   139    1
SMALL
USER_CHARGES


@<TRIPOS>ATOM
      1 CA         24.8228   -4.2589   -2.0592 C.3       0 UNK        -0.2020 
      2 C          25.6977   -3.2223   -1.3742 C.2       0 UNK         0.4855 
      3 O          25.2325   -2.5341   -0.4630 O.2       0 UNK        -0.5197 
      4 N          26.9568   -3.0961   -1.8110 N.am      1 UNK        -0.4892 
      5 CA         27.9713   -2.1809   -1.2714 C.3       1 UNK         0.0835 
      6 C6         29.4046   -2.6177   -1.6709 C.3       12 UNK        -0.0855 
      7 S7         29.8130   -4.2666   -0.9998 S.3       12 UNK        -0.2931 
      8 C8         31.3172   -4.7013   -1.9396 C.3       12 UNK         0.0378 
      9 C9         31.1010   -4.8079   -3.4473 C.ar      12 UNK        -0.0802 
     10 C10        32.0604   -4.2830   -4.3206 C.ar      12 UNK        -0.0944 
     11 C11        31.8824   -4.3603   -5.7053 C.ar      12 UNK        -0.0787 
     12 C12        30.7379   -4.9755   -6.2161 C.ar      12 UNK        -0.0862 
     13 C13        29.7537   -5.4696   -5.3570 C.ar      12 UNK        -0.0733 
     14 C14        29.9552   -5.4156   -3.9755 C.ar      12 UNK        -0.0832 
     15 C15        28.4382   -5.9805   -5.9278 C.3       12 UNK         0.0240 
     16 S16        27.0502   -4.8492   -5.5603 S.3       12 UNK        -0.2522 
     17 C17        27.7275   -3.2020   -5.9862 C.3       12 UNK        -0.0967 
     18 CA         26.8273   -2.3640   -6.9303 C.3       5 UNK         0.0660 
     19 N          25.4342   -2.2129   -6.4731 N.am      5 UNK        -0.4015 
     20 C          25.0202   -1.7410   -5.2913 C.2       4 UNK         0.4946 
     21 O          25.7878   -1.2935   -4.4334 O.2       4 UNK        -0.5353 
     22 CA         23.5095   -1.7490   -5.0158 C.3       4 UNK         0.0277 
     23 CB         22.8833   -3.1472   -5.1910 C.3       4 UNK        -0.1981 
     24 N          23.3548   -1.2857   -3.6447 N.am      4 UNK        -0.4209 
     25 C          22.2764   -0.7657   -3.0559 C.2       3 UNK         0.4942 
     26 O          21.1718   -0.6772   -3.5929 O.2       3 UNK        -0.5208 
     27 CA         22.4714   -0.2524   -1.6166 C.3       3 UNK         0.0250 
     28 CB         21.8904   -1.2562   -0.6071 C.3       3 UNK        -0.1990 
     29 N          23.8827   -0.0061   -1.2883 N.am      3 UNK        -0.4232 
     30 C          24.5693    1.0849   -1.6691 C.2       2 UNK         0.4993 
     31 O          24.0605    2.0183   -2.2903 O.2       2 UNK        -0.5286 
     32 CA         26.0653    1.1642   -1.3169 C.3       2 UNK         0.0209 
     33 CB         26.2852    2.0804   -0.1015 C.3       2 UNK        -0.1931 
     34 N          26.6335   -0.1539   -1.0327 N.am      2 UNK        -0.4546 
     35 C          27.6642   -0.7206   -1.6699 C.2       1 UNK         0.5154 
     36 O          28.3364   -0.1551   -2.5336 O.2       1 UNK        -0.5181 
     37 C          27.5231   -1.0234   -7.2557 C.2       5 UNK         0.5014 
     38 O          28.2082   -0.9353   -8.2748 O.2       5 UNK        -0.5248 
     39 N          27.3241   -0.0018   -6.4102 N.am      6 UNK        -0.4434 
     40 CA         27.9042    1.3454   -6.4897 C.3       6 UNK         0.0363 
     41 CB         27.3883    2.1821   -5.3090 C.3       6 UNK        -0.1936 
     42 C          27.6649    2.0887   -7.8173 C.2       6 UNK         0.5081 
     43 O          28.4442    2.9794   -8.1543 O.2       6 UNK        -0.5248 
     44 N          26.6398    1.6796   -8.5792 N.am      7 UNK        -0.4718 
     45 CA         26.3646    2.1172   -9.9526 C.3       7 UNK         0.0273 
     46 CB         25.0592    1.4631  -10.4331 C.3       7 UNK        -0.1935 
     47 C          27.5088    1.8324  -10.9489 C.2       7 UNK         0.5018 
     48 O          27.5849    2.5055  -11.9770 O.2       7 UNK        -0.5186 
     49 N          28.3952    0.8783  -10.6213 N.am      8 UNK        -0.4240 
     50 CA         29.6413    0.6068  -11.3440 C.3       8 UNK         0.0235 
     51 CB         30.1737   -0.7724  -10.9192 C.3       8 UNK        -0.2000 
     52 C          30.7284    1.6818  -11.1369 C.2       8 UNK         0.4941 
     53 O          31.7502    1.6262  -11.8232 O.2       8 UNK        -0.5273 
     54 N          30.5274    2.6112  -10.1874 N.am      9 UNK        -0.4262 
     55 CA         31.3973    3.7228   -9.7768 C.3       9 UNK         0.0264 
     56 CB         31.6899    4.6891  -10.9414 C.3       9 UNK        -0.1955 
     57 C          32.6893    3.2780   -9.0731 C.2       9 UNK         0.5031 
     58 O          32.9756    3.7642   -7.9783 O.2       9 UNK        -0.5390 
     59 N          33.4248    2.3388   -9.6816 N.am      10 UNK        -0.4204 
     60 CA         34.6637    1.7477   -9.1629 C.3       10 UNK         0.0237 
     61 CB         35.2512    0.8000  -10.2209 C.3       10 UNK        -0.1985 
     62 C          34.4872    1.0127   -7.8213 C.2       10 UNK         0.4970 
     63 O          35.4309    0.9641   -7.0316 O.2       10 UNK        -0.4914 
     64 N          33.2840    0.4762   -7.5866 N.am      11 UNK        -0.4285 
     65 CA         32.8709   -0.1523   -6.3243 C.3       11 UNK         0.1007 
     66 C          32.5123    0.8590   -5.1953 C.2       11 UNK         0.5703 
     67 N          32.4631    2.1637   -5.4446 N.am      11 UNK        -0.7361 
     68 O          32.2899    0.4497   -4.0590 O.2       11 UNK        -0.4986 
     69 C69        31.7288   -1.1775   -6.5474 C.3       12 UNK        -0.0947 
     70 S70        32.1847   -2.4807   -7.7417 S.3       12 UNK        -0.2240 
     71 C71        32.9085   -3.7543   -6.6536 C.3       12 UNK         0.0194 
     72 H72        23.8252   -3.8564   -2.2307 H         1 UNK         0.0906 
     73 H73        24.7274   -5.1420   -1.4283 H         1 UNK         0.0906 
     74 H74        25.2368   -4.5659   -3.0193 H         1 UNK         0.0906 
     75 H75        27.2679   -3.6661   -2.5843 H         1 UNK         0.3140 
     76 H76        27.9155   -2.2242   -0.1810 H         1 UNK         0.1085 
     77 H77        30.1440   -1.9077   -1.2948 H         1 UNK         0.0836 
     78 H78        29.5111   -2.6259   -2.7575 H         1 UNK         0.0836 
     79 H79        32.0874   -3.9620   -1.7135 H         1 UNK         0.0731 
     80 H80        31.6921   -5.6585   -1.5753 H         1 UNK         0.0731 
     81 H81        32.9438   -3.8032   -3.9216 H         1 UNK         0.1312 
     82 H82        30.5875   -5.0118   -7.2866 H         1 UNK         0.1406 
     83 H83        29.1948   -5.8057   -3.3128 H         1 UNK         0.1631 
     84 H84        28.2172   -6.9649   -5.5132 H         1 UNK         0.0717 
     85 H85        28.5090   -6.1103   -7.0089 H         1 UNK         0.0717 
     86 H86        27.9231   -2.6711   -5.0524 H         1 UNK         0.0934 
     87 H87        28.6997   -3.3179   -6.4632 H         1 UNK         0.0934 
     88 H88        26.7595   -2.9064   -7.8750 H         1 UNK         0.0739 
     89 H89        24.7360   -2.5351   -7.1278 H         1 UNK         0.3093 
     90 H90        23.0291   -1.0354   -5.6881 H         1 UNK         0.0818 
     91 H91        22.8826   -3.4511   -6.2380 H         1 UNK         0.0819 
     92 H92        23.4266   -3.9096   -4.6335 H         1 UNK         0.0819 
     93 H93        21.8460   -3.1656   -4.8564 H         1 UNK         0.0819 
     94 H94        24.2433   -1.2320   -3.1593 H         1 UNK         0.3041 
     95 H95        21.9184    0.6848   -1.5232 H         1 UNK         0.0784 
     96 H96        20.8332   -1.4400   -0.8034 H         1 UNK         0.0793 
     97 H97        22.4026   -2.2182   -0.6522 H         1 UNK         0.0793 
     98 H98        21.9691   -0.8822    0.4139 H         1 UNK         0.0793 
     99 H99        24.3616   -0.7596   -0.8068 H         1 UNK         0.3024 
    100 H100       26.5657    1.6088   -2.1798 H         1 UNK         0.1171 
    101 H101       25.8797    3.0767   -0.2839 H         1 UNK         0.0786 
    102 H102       25.8005    1.6881    0.7934 H         1 UNK         0.0786 
    103 H103       27.3468    2.1986    0.1164 H         1 UNK         0.0786 
    104 H104       26.1268   -0.7451   -0.3830 H         1 UNK         0.2977 
    105 H105       26.7795   -0.2141   -5.5759 H         1 UNK         0.3127 
    106 H106       28.9850    1.2339   -6.3816 H         1 UNK         0.0770 
    107 H107       26.3010    2.2678   -5.3180 H         1 UNK         0.0814 
    108 H108       27.7982    3.1929   -5.3342 H         1 UNK         0.0814 
    109 H109       27.6836    1.7408   -4.3578 H         1 UNK         0.0814 
    110 H110       26.0579    0.9388   -8.2168 H         1 UNK         0.2983 
    111 H111       26.2218    3.1997   -9.9300 H         1 UNK         0.0947 
    112 H112       25.1366    0.3752  -10.4531 H         1 UNK         0.0806 
    113 H113       24.8072    1.7903  -11.4430 H         1 UNK         0.0806 
    114 H114       24.2200    1.7301   -9.7905 H         1 UNK         0.0806 
    115 H115       28.2473    0.3456   -9.7673 H         1 UNK         0.3000 
    116 H116       29.4176    0.5746  -12.4124 H         1 UNK         0.0850 
    117 H117       29.4343   -1.5547  -11.0915 H         1 UNK         0.0810 
    118 H118       30.4401   -0.7937   -9.8616 H         1 UNK         0.0810 
    119 H119       31.0668   -1.0414  -11.4848 H         1 UNK         0.0810 
    120 H120       29.6701    2.5503   -9.6447 H         1 UNK         0.3040 
    121 H121       30.8189    4.2788   -9.0368 H         1 UNK         0.0766 
    122 H122       32.2850    4.2224  -11.7266 H         1 UNK         0.0812 
    123 H123       32.2453    5.5601  -10.5912 H         1 UNK         0.0812 
    124 H124       30.7671    5.0535  -11.3929 H         1 UNK         0.0812 
    125 H125       33.0752    1.9928  -10.5740 H         1 UNK         0.3205 
    126 H126       35.3718    2.5622   -8.9973 H         1 UNK         0.0754 
    127 H127       36.1879    0.3599   -9.8754 H         1 UNK         0.0769 
    128 H128       35.4660    1.3274  -11.1506 H         1 UNK         0.0769 
    129 H129       34.5694   -0.0203  -10.4503 H         1 UNK         0.0769 
    130 H130       32.5730    0.5560   -8.2963 H         1 UNK         0.2981 
    131 H131       33.7280   -0.7109   -5.9437 H         1 UNK         0.0541 
    132 H132       32.2366    2.7927   -4.6914 H         1 UNK         0.3459 
    133 H133       32.6740    2.5392   -6.3618 H         1 UNK         0.3459 
    134 H134       30.8372   -0.6741   -6.9255 H         1 UNK         0.0612 
    135 H135       31.4318   -1.6434   -5.6065 H         1 UNK         0.0612 
    136 H136       33.7428   -3.3174   -6.1029 H         1 UNK         0.0624 
    137 H137       33.3283   -4.5476   -7.2732 H         1 UNK         0.0624 
@<TRIPOS>BOND
     1    1    2 1    
     2    1   72 1    
     3    1   73 1    
     4    1   74 1    
     5    2    3 2    
     6    2    4 am   BACKBONE|DICT|INTERRES
     7    4    5 1    
     8    4   75 1    
     9    5    6 1    
    10    5   35 1    
    11    5   76 1    
    12    6    7 1    
    13    6   77 1    
    14    6   78 1    
    15    7    8 1    
    16    8    9 1    
    17    8   79 1    
    18    8   80 1    
    19    9   10 ar   
    20    9   14 ar   
    21   10   11 ar   
    22   10   81 1    
    23   11   12 ar   
    24   11   71 1    
    25   12   13 ar   
    26   12   82 1    
    27   13   14 ar   
    28   13   15 1    
    29   14   83 1    
    30   15   16 1    
    31   15   84 1    
    32   15   85 1    
    33   16   17 1    
    34   17   18 1    
    35   17   86 1    
    36   17   87 1    
    37   18   19 1    
    38   18   37 1    
    39   18   88 1    
    40   19   20 am   BACKBONE|DICT|INTERRES
    41   19   89 1    
    42   20   21 2    
    43   20   22 1    
    44   22   23 1    
    45   22   24 1    
    46   22   90 1    
    47   23   91 1    
    48   23   92 1    
    49   23   93 1    
    50   24   25 am   BACKBONE|DICT|INTERRES
    51   24   94 1    
    52   25   26 2    
    53   25   27 1    
    54   27   28 1    
    55   27   29 1    
    56   27   95 1    
    57   28   96 1    
    58   28   97 1    
    59   28   98 1    
    60   29   30 am   BACKBONE|DICT|INTERRES
    61   29   99 1    
    62   30   31 2    
    63   30   32 1    
    64   32   33 1    
    65   32   34 1    
    66   32  100 1    
    67   33  101 1    
    68   33  102 1    
    69   33  103 1    
    70   34   35 am   BACKBONE|DICT|INTERRES
    71   34  104 1    
    72   35   36 2    
    73   37   38 2    
    74   37   39 am   BACKBONE|DICT|INTERRES
    75   39   40 1    
    76   39  105 1    
    77   40   41 1    
    78   40   42 1    
    79   40  106 1    
    80   41  107 1    
    81   41  108 1    
    82   41  109 1    
    83   42   43 2    
    84   42   44 am   BACKBONE|DICT|INTERRES
    85   44   45 1    
    86   44  110 1    
    87   45   46 1    
    88   45   47 1    
    89   45  111 1    
    90   46  112 1    
    91   46  113 1    
    92   46  114 1    
    93   47   48 2    
    94   47   49 am   BACKBONE|DICT|INTERRES
    95   49   50 1    
    96   49  115 1    
    97   50   51 1    
    98   50   52 1    
    99   50  116 1    
   100   51  117 1    
   101   51  118 1    
   102   51  119 1    
   103   52   53 2    
   104   52   54 am   BACKBONE|DICT|INTERRES
   105   54   55 1    
   106   54  120 1    
   107   55   56 1    
   108   55   57 1    
   109   55  121 1    
   110   56  122 1    
   111   56  123 1    
   112   56  124 1    
   113   57   58 2    
   114   57   59 am   BACKBONE|DICT|INTERRES
   115   59   60 1    
   116   59  125 1    
   117   60   61 1    
   118   60   62 1    
   119   60  126 1    
   120   61  127 1    
   121   61  128 1    
   122   61  129 1    
   123   62   63 2    
   124   62   64 am   BACKBONE|DICT|INTERRES
   125   64   65 1    
   126   64  130 1    
   127   65   66 1    
   128   65   69 1    
   129   65  131 1    
   130   66   67 am   BACKBONE|DICT|INTERRES
   131   66   68 2    
   132   67  132 1    
   133   67  133 1    
   134   69   70 1    
   135   69  134 1    
   136   69  135 1    
   137   70   71 1    
   138   71  136 1    
   139   71  137 1    
@<TRIPOS>SUBSTRUCTURE
     1 UNK         1 GROUP             0       ****    0 ROOT    
