@<TRIPOS>MOLECULE
3R137
137   139    1
SMALL
USER_CHARGES


@<TRIPOS>ATOM
      1 CA         24.7756   -4.5484   -3.9431 C.3       0 UNK        -0.2020 
      2 C          25.6538   -3.6481   -3.0892 C.2       0 UNK         0.4855 
      3 O          26.0706   -2.5887   -3.5643 O.2       0 UNK        -0.5197 
      4 N          25.9132   -4.0697   -1.8418 N.am      1 UNK        -0.4892 
      5 CA         26.7834   -3.4551   -0.8267 C.3       1 UNK         0.0835 
      6 C6         28.2912   -3.7072   -1.0957 C.3       12 UNK        -0.0855 
      7 S7         28.6899   -5.4821   -0.9422 S.3       12 UNK        -0.2931 
      8 C8         30.5014   -5.4778   -1.1691 C.3       12 UNK         0.0378 
      9 C9         30.9411   -4.9187   -2.5185 C.ar      12 UNK        -0.0802 
     10 C10        32.0100   -4.0183   -2.5860 C.ar      12 UNK        -0.0944 
     11 C11        32.4089   -3.4821   -3.8140 C.ar      12 UNK        -0.0787 
     12 C12        31.7299   -3.8474   -4.9794 C.ar      12 UNK        -0.0862 
     13 C13        30.6496   -4.7307   -4.9229 C.ar      12 UNK        -0.0733 
     14 C14        30.2800   -5.2860   -3.6961 C.ar      12 UNK        -0.0832 
     15 C15        29.8443   -5.0429   -6.1753 C.3       12 UNK         0.0240 
     16 S16        28.1748   -4.3153   -6.0844 S.3       12 UNK        -0.2522 
     17 C17        28.5461   -2.5357   -5.9006 C.3       12 UNK        -0.0967 
     18 CA         27.6736   -1.6680   -6.8335 C.3       5 UNK         0.0660 
     19 N          26.2464   -1.7743   -6.5138 N.am      5 UNK        -0.4015 
     20 C          25.2698   -1.4013   -7.3530 C.2       4 UNK         0.4946 
     21 O          25.4772   -0.9469   -8.4772 O.2       4 UNK        -0.5353 
     22 CA         23.8195   -1.4993   -6.8483 C.3       4 UNK         0.0277 
     23 CB         23.2433   -2.8957   -7.1302 C.3       4 UNK        -0.1981 
     24 N          23.6542   -1.1662   -5.4296 N.am      4 UNK        -0.4209 
     25 C          24.0100   -0.0010   -4.8703 C.2       3 UNK         0.4942 
     26 O          24.5505    0.9133   -5.4921 O.2       3 UNK        -0.5208 
     27 CA         23.7699    0.1709   -3.3678 C.3       3 UNK         0.0250 
     28 CB         22.7344   -0.8064   -2.7740 C.3       3 UNK        -0.1990 
     29 N          25.0506   -0.0176   -2.6966 N.am      3 UNK        -0.4232 
     30 C          25.6131    0.8290   -1.8253 C.2       2 UNK         0.4993 
     31 O          25.1108    1.9053   -1.4967 O.2       2 UNK        -0.5286 
     32 CA         26.9702    0.4025   -1.2210 C.3       2 UNK         0.0209 
     33 CB         27.2140    1.0051    0.1793 C.3       2 UNK        -0.1931 
     34 N          27.1785   -1.0536   -1.2072 N.am      2 UNK        -0.4546 
     35 C          26.4285   -1.9748   -0.5802 C.2       1 UNK         0.5154 
     36 O          25.4696   -1.7074    0.1460 O.2       1 UNK        -0.5181 
     37 C          28.1556   -0.2018   -6.8469 C.2       5 UNK         0.5014 
     38 O          29.0221    0.1384   -7.6541 O.2       5 UNK        -0.5248 
     39 N          27.5731    0.6526   -5.9914 N.am      6 UNK        -0.4434 
     40 CA         27.8348    2.0936   -5.9829 C.3       6 UNK         0.0363 
     41 CB         27.3643    2.7180   -4.6600 C.3       6 UNK        -0.1936 
     42 C          27.1870    2.7882   -7.1902 C.2       6 UNK         0.5081 
     43 O          27.8298    3.6317   -7.8132 O.2       6 UNK        -0.5248 
     44 N          25.9568    2.3831   -7.5390 N.am      7 UNK        -0.4718 
     45 CA         25.2366    2.8304   -8.7370 C.3       7 UNK         0.0273 
     46 CB         23.8003    2.2855   -8.7089 C.3       7 UNK        -0.1935 
     47 C          25.9468    2.4376  -10.0461 C.2       7 UNK         0.5018 
     48 O          25.9721    3.2349  -10.9839 O.2       7 UNK        -0.5186 
     49 N          26.5503    1.2406  -10.0680 N.am      8 UNK        -0.4240 
     50 CA         27.4130    0.7470  -11.1461 C.3       8 UNK         0.0235 
     51 CB         27.5506   -0.7793  -11.0147 C.3       8 UNK        -0.2000 
     52 C          28.8074    1.4063  -11.1879 C.2       8 UNK         0.4941 
     53 O          29.5411    1.1667  -12.1479 O.2       8 UNK        -0.5273 
     54 N          29.1538    2.2037  -10.1647 N.am      9 UNK        -0.4262 
     55 CA         30.4282    2.9013   -9.9634 C.3       9 UNK         0.0264 
     56 CB         30.6453    3.9819  -11.0448 C.3       9 UNK        -0.1955 
     57 C          31.6243    1.9418   -9.8095 C.2       9 UNK         0.5031 
     58 O          32.6951    2.1965  -10.3668 O.2       9 UNK        -0.5390 
     59 N          31.4241    0.8580   -9.0478 N.am      10 UNK        -0.4204 
     60 CA         32.4669   -0.0936   -8.6620 C.3       10 UNK         0.0237 
     61 CB         31.8000   -1.4432   -8.3323 C.3       10 UNK        -0.1985 
     62 C          33.3008    0.4313   -7.4742 C.2       10 UNK         0.4970 
     63 O          33.1005    1.5594   -7.0151 O.2       10 UNK        -0.4914 
     64 N          34.2068   -0.4247   -6.9861 N.am      11 UNK        -0.4285 
     65 CA         35.1198   -0.1867   -5.8546 C.3       11 UNK         0.1007 
     66 C          36.2746    0.8014   -6.2026 C.2       11 UNK         0.5703 
     67 N          37.0288    1.2715   -5.2171 N.am      11 UNK        -0.7361 
     68 O          36.5309    1.1142   -7.3646 O.2       11 UNK        -0.4986 
     69 C69        34.4022    0.1519   -4.5059 C.3       12 UNK        -0.0947 
     70 S70        32.8892   -0.8066   -4.1520 S.3       12 UNK        -0.2240 
     71 C71        33.5478   -2.4792   -3.8912 C.3       12 UNK         0.0194 
     72 H72        23.8120   -4.0752   -4.1249 H         1 UNK         0.0906 
     73 H73        24.5955   -5.5121   -3.4672 H         1 UNK         0.0906 
     74 H74        25.2567   -4.7357   -4.9026 H         1 UNK         0.0906 
     75 H75        25.4952   -4.9394   -1.5421 H         1 UNK         0.3140 
     76 H76        26.5404   -3.9552    0.1129 H         1 UNK         0.1085 
     77 H77        28.9130   -3.1618   -0.3826 H         1 UNK         0.0836 
     78 H78        28.5726   -3.3634   -2.0929 H         1 UNK         0.0836 
     79 H79        30.9516   -4.9124   -0.3515 H         1 UNK         0.0731 
     80 H80        30.8697   -6.5003   -1.0779 H         1 UNK         0.0731 
     81 H81        32.5253   -3.7244   -1.6816 H         1 UNK         0.1312 
     82 H82        32.0225   -3.4114   -5.9244 H         1 UNK         0.1406 
     83 H83        29.4423   -5.9690   -3.6544 H         1 UNK         0.1631 
     84 H84        29.7572   -6.1240   -6.2916 H         1 UNK         0.0717 
     85 H85        30.3491   -4.6742   -7.0698 H         1 UNK         0.0717 
     86 H86        28.4080   -2.2547   -4.8550 H         1 UNK         0.0934 
     87 H87        29.6010   -2.3711   -6.1181 H         1 UNK         0.0934 
     88 H88        27.8112   -2.0450   -7.8494 H         1 UNK         0.0739 
     89 H89        26.0159   -2.1346   -5.5939 H         1 UNK         0.3093 
     90 H90        23.2316   -0.7743   -7.4145 H         1 UNK         0.0818 
     91 H91        23.2941   -3.1264   -8.1953 H         1 UNK         0.0819 
     92 H92        23.7926   -3.6770   -6.6058 H         1 UNK         0.0819 
     93 H93        22.1955   -2.9627   -6.8371 H         1 UNK         0.0819 
     94 H94        23.2139   -1.8608   -4.8455 H         1 UNK         0.3041 
     95 H95        23.4037    1.1896   -3.2247 H         1 UNK         0.0784 
     96 H96        21.7809   -0.7425   -3.3003 H         1 UNK         0.0793 
     97 H97        23.0721   -1.8425   -2.8076 H         1 UNK         0.0793 
     98 H98        22.5375   -0.5671   -1.7286 H         1 UNK         0.0793 
     99 H99        25.5428   -0.8794   -2.9226 H         1 UNK         0.3024 
    100 H100       27.7314    0.8105   -1.8871 H         1 UNK         0.1171 
    101 H101       27.2114    2.0952    0.1428 H         1 UNK         0.0786 
    102 H102       26.4443    0.7035    0.8903 H         1 UNK         0.0786 
    103 H103       28.1803    0.6995    0.5805 H         1 UNK         0.0786 
    104 H104       27.9107   -1.3920   -1.8158 H         1 UNK         0.2977 
    105 H105       26.8068    0.3268   -5.4194 H         1 UNK         0.3127 
    106 H106       28.9144    2.2454   -6.0556 H         1 UNK         0.0770 
    107 H107       26.2946    2.5860   -4.4978 H         1 UNK         0.0814 
    108 H108       27.5621    3.7906   -4.6472 H         1 UNK         0.0814 
    109 H109       27.8914    2.2854   -3.8108 H         1 UNK         0.0814 
    110 H110       25.4752    1.7251   -6.9299 H         1 UNK         0.2983 
    111 H111       25.1893    3.9210   -8.7036 H         1 UNK         0.0947 
    112 H112       23.7807    1.1972   -8.7619 H         1 UNK         0.0806 
    113 H113       23.2244    2.6629   -9.5549 H         1 UNK         0.0806 
    114 H114       23.2786    2.5860   -7.7999 H         1 UNK         0.0806 
    115 H115       26.3898    0.6058   -9.2906 H         1 UNK         0.3000 
    116 H116       26.9251    0.9651  -12.0984 H         1 UNK         0.0850 
    117 H117       28.1372   -1.1936  -11.8357 H         1 UNK         0.0810 
    118 H118       26.5772   -1.2698  -11.0338 H         1 UNK         0.0810 
    119 H119       28.0490   -1.0573  -10.0858 H         1 UNK         0.0810 
    120 H120       28.4769    2.3401   -9.4234 H         1 UNK         0.3040 
    121 H121       30.3385    3.4160   -9.0056 H         1 UNK         0.0766 
    122 H122       29.7911    4.6561  -11.1075 H         1 UNK         0.0812 
    123 H123       30.8018    3.5443  -12.0311 H         1 UNK         0.0812 
    124 H124       31.5214    4.5903  -10.8175 H         1 UNK         0.0812 
    125 H125       30.5171    0.7270   -8.6019 H         1 UNK         0.3205 
    126 H126       33.1405   -0.2386   -9.5092 H         1 UNK         0.0754 
    127 H127       32.5349   -2.2440   -8.2477 H         1 UNK         0.0769 
    128 H128       31.0929   -1.7403   -9.1074 H         1 UNK         0.0769 
    129 H129       31.2589   -1.3943   -7.3879 H         1 UNK         0.0769 
    130 H130       34.3254   -1.3119   -7.4510 H         1 UNK         0.2981 
    131 H131       35.6252   -1.1421   -5.7153 H         1 UNK         0.0541 
    132 H132       37.7879    1.8965   -5.4394 H         1 UNK         0.3459 
    133 H133       36.8546    1.0169   -4.2579 H         1 UNK         0.3459 
    134 H134       34.1180    1.2055   -4.4896 H         1 UNK         0.0612 
    135 H135       35.0856    0.0127   -3.6670 H         1 UNK         0.0612 
    136 H136       34.1498   -2.4958   -2.9814 H         1 UNK         0.0624 
    137 H137       34.2095   -2.7527   -4.7134 H         1 UNK         0.0624 
@<TRIPOS>BOND
     1    1    2 1    
     2    1   72 1    
     3    1   73 1    
     4    1   74 1    
     5    2    3 2    
     6    2    4 am   BACKBONE|DICT|INTERRES
     7    4    5 1    
     8    4   75 1    
     9    5    6 1    
    10    5   35 1    
    11    5   76 1    
    12    6    7 1    
    13    6   77 1    
    14    6   78 1    
    15    7    8 1    
    16    8    9 1    
    17    8   79 1    
    18    8   80 1    
    19    9   10 ar   
    20    9   14 ar   
    21   10   11 ar   
    22   10   81 1    
    23   11   12 ar   
    24   11   71 1    
    25   12   13 ar   
    26   12   82 1    
    27   13   14 ar   
    28   13   15 1    
    29   14   83 1    
    30   15   16 1    
    31   15   84 1    
    32   15   85 1    
    33   16   17 1    
    34   17   18 1    
    35   17   86 1    
    36   17   87 1    
    37   18   19 1    
    38   18   37 1    
    39   18   88 1    
    40   19   20 am   BACKBONE|DICT|INTERRES
    41   19   89 1    
    42   20   21 2    
    43   20   22 1    
    44   22   23 1    
    45   22   24 1    
    46   22   90 1    
    47   23   91 1    
    48   23   92 1    
    49   23   93 1    
    50   24   25 am   BACKBONE|DICT|INTERRES
    51   24   94 1    
    52   25   26 2    
    53   25   27 1    
    54   27   28 1    
    55   27   29 1    
    56   27   95 1    
    57   28   96 1    
    58   28   97 1    
    59   28   98 1    
    60   29   30 am   BACKBONE|DICT|INTERRES
    61   29   99 1    
    62   30   31 2    
    63   30   32 1    
    64   32   33 1    
    65   32   34 1    
    66   32  100 1    
    67   33  101 1    
    68   33  102 1    
    69   33  103 1    
    70   34   35 am   BACKBONE|DICT|INTERRES
    71   34  104 1    
    72   35   36 2    
    73   37   38 2    
    74   37   39 am   BACKBONE|DICT|INTERRES
    75   39   40 1    
    76   39  105 1    
    77   40   41 1    
    78   40   42 1    
    79   40  106 1    
    80   41  107 1    
    81   41  108 1    
    82   41  109 1    
    83   42   43 2    
    84   42   44 am   BACKBONE|DICT|INTERRES
    85   44   45 1    
    86   44  110 1    
    87   45   46 1    
    88   45   47 1    
    89   45  111 1    
    90   46  112 1    
    91   46  113 1    
    92   46  114 1    
    93   47   48 2    
    94   47   49 am   BACKBONE|DICT|INTERRES
    95   49   50 1    
    96   49  115 1    
    97   50   51 1    
    98   50   52 1    
    99   50  116 1    
   100   51  117 1    
   101   51  118 1    
   102   51  119 1    
   103   52   53 2    
   104   52   54 am   BACKBONE|DICT|INTERRES
   105   54   55 1    
   106   54  120 1    
   107   55   56 1    
   108   55   57 1    
   109   55  121 1    
   110   56  122 1    
   111   56  123 1    
   112   56  124 1    
   113   57   58 2    
   114   57   59 am   BACKBONE|DICT|INTERRES
   115   59   60 1    
   116   59  125 1    
   117   60   61 1    
   118   60   62 1    
   119   60  126 1    
   120   61  127 1    
   121   61  128 1    
   122   61  129 1    
   123   62   63 2    
   124   62   64 am   BACKBONE|DICT|INTERRES
   125   64   65 1    
   126   64  130 1    
   127   65   66 1    
   128   65   69 1    
   129   65  131 1    
   130   66   67 am   BACKBONE|DICT|INTERRES
   131   66   68 2    
   132   67  132 1    
   133   67  133 1    
   134   69   70 1    
   135   69  134 1    
   136   69  135 1    
   137   70   71 1    
   138   71  136 1    
   139   71  137 1    
@<TRIPOS>SUBSTRUCTURE
     1 UNK         1 GROUP             0       ****    0 ROOT    
