@<TRIPOS>MOLECULE
3R137
137   139    1
SMALL
USER_CHARGES


@<TRIPOS>ATOM
      1 CA         26.7613   -5.7007   -2.5113 C.3       0 UNK        -0.2020 
      2 C          26.6369   -4.5110   -1.5723 C.2       0 UNK         0.4855 
      3 O          25.5249   -4.1333   -1.2005 O.2       0 UNK        -0.5197 
      4 N          27.7695   -3.9137   -1.1824 N.am      1 UNK        -0.4892 
      5 CA         27.8766   -2.7210   -0.3325 C.3       1 UNK         0.0835 
      6 C6         29.2377   -2.6359    0.4343 C.3       12 UNK        -0.0855 
      7 S7         30.6604   -3.5108   -0.3190 S.3       12 UNK        -0.2931 
      8 C8         31.4734   -2.2066   -1.2932 C.3       12 UNK         0.0378 
      9 C9         31.7920   -2.7162   -2.6899 C.ar      12 UNK        -0.0802 
     10 C10        33.1077   -2.9771   -3.0802 C.ar      12 UNK        -0.0944 
     11 C11        33.3840   -3.4552   -4.3654 C.ar      12 UNK        -0.0787 
     12 C12        32.3282   -3.6772   -5.2562 C.ar      12 UNK        -0.0862 
     13 C13        31.0036   -3.4228   -4.8821 C.ar      12 UNK        -0.0733 
     14 C14        30.7507   -2.9406   -3.5912 C.ar      12 UNK        -0.0832 
     15 C15        29.8951   -3.6842   -5.9078 C.3       12 UNK         0.0240 
     16 S16        28.1758   -3.5431   -5.2991 S.3       12 UNK        -0.2522 
     17 C17        28.0131   -1.7366   -5.1112 C.3       12 UNK        -0.0967 
     18 CA         27.3133   -1.0798   -6.3190 C.3       5 UNK         0.0660 
     19 N          25.9478   -1.5626   -6.5253 N.am      5 UNK        -0.4015 
     20 C          25.2781   -1.4300   -7.6792 C.2       4 UNK         0.4946 
     21 O          25.7616   -0.9197   -8.6895 O.2       4 UNK        -0.5353 
     22 CA         23.8035   -1.8730   -7.6936 C.3       4 UNK         0.0277 
     23 CB         23.6923   -3.3632   -8.0509 C.3       4 UNK        -0.1981 
     24 N          23.1131   -1.6171   -6.4254 N.am      4 UNK        -0.4209 
     25 C          22.9922   -0.4090   -5.8580 C.2       3 UNK         0.4942 
     26 O          23.3879    0.6300   -6.3880 O.2       3 UNK        -0.5208 
     27 CA         22.4215   -0.3434   -4.4298 C.3       3 UNK         0.0250 
     28 CB         21.6217   -1.5985   -4.0109 C.3       3 UNK        -0.1990 
     29 N          23.4817   -0.0498   -3.4537 N.am      3 UNK        -0.4232 
     30 C          24.5956   -0.7663   -3.2314 C.2       2 UNK         0.4993 
     31 O          24.8669   -1.8058   -3.8366 O.2       2 UNK        -0.5286 
     32 CA         25.5973   -0.2249   -2.1972 C.3       2 UNK         0.0209 
     33 CB         24.9807    0.7414   -1.1638 C.3       2 UNK        -0.1931 
     34 N          26.2182   -1.3515   -1.5034 N.am      2 UNK        -0.4546 
     35 C          27.4928   -1.4368   -1.1072 C.2       1 UNK         0.5154 
     36 O          28.3311   -0.5636   -1.3346 O.2       1 UNK        -0.5181 
     37 C          27.3815    0.4546   -6.2071 C.2       5 UNK         0.5014 
     38 O          28.4287    1.0167   -6.5187 O.2       5 UNK        -0.5248 
     39 N          26.2953    1.1265   -5.7948 N.am      6 UNK        -0.4434 
     40 CA         26.2312    2.5913   -5.7853 C.3       6 UNK         0.0363 
     41 CB         25.0885    3.0820   -4.8822 C.3       6 UNK        -0.1936 
     42 C          26.1013    3.1423   -7.2140 C.2       6 UNK         0.5081 
     43 O          26.7538    4.1330   -7.5404 O.2       6 UNK        -0.5248 
     44 N          25.3149    2.4533   -8.0545 N.am      7 UNK        -0.4718 
     45 CA         25.1962    2.7242   -9.4895 C.3       7 UNK         0.0273 
     46 CB         24.0220    1.9200  -10.0703 C.3       7 UNK        -0.1935 
     47 C          26.4984    2.4354  -10.2601 C.2       7 UNK         0.5018 
     48 O          26.8725    3.2256  -11.1270 O.2       7 UNK        -0.5186 
     49 N          27.1759    1.3289   -9.9184 N.am      8 UNK        -0.4240 
     50 CA         28.4580    0.9200  -10.5061 C.3       8 UNK         0.0235 
     51 CB         28.6901   -0.5736  -10.2246 C.3       8 UNK        -0.2000 
     52 C          29.6726    1.7402  -10.0261 C.2       8 UNK         0.4941 
     53 O          30.7373    1.6162  -10.6324 O.2       8 UNK        -0.5273 
     54 N          29.5033    2.5403   -8.9617 N.am      9 UNK        -0.4262 
     55 CA         30.5251    3.3280   -8.2607 C.3       9 UNK         0.0264 
     56 CB         31.1435    4.4039   -9.1796 C.3       9 UNK        -0.1955 
     57 C          31.5732    2.4275   -7.5782 C.2       9 UNK         0.5031 
     58 O          32.7704    2.5317   -7.8578 O.2       9 UNK        -0.5390 
     59 N          31.0802    1.5536   -6.6905 N.am      10 UNK        -0.4204 
     60 CA         31.8049    0.5460   -5.9161 C.3       10 UNK         0.0237 
     61 CB         32.7499    1.2047   -4.8842 C.3       10 UNK        -0.1985 
     62 C          32.4709   -0.4829   -6.8435 C.2       10 UNK         0.4970 
     63 O          31.7764   -1.0824   -7.6660 O.2       10 UNK        -0.4914 
     64 N          33.7828   -0.6845   -6.6857 N.am      11 UNK        -0.4285 
     65 CA         34.5796   -1.6627   -7.4372 C.3       11 UNK         0.1007 
     66 C          34.8138   -1.3054   -8.9354 C.2       11 UNK         0.5703 
     67 N          34.4733   -0.1086   -9.4009 N.am      11 UNK        -0.7361 
     68 O          35.3133   -2.1356   -9.6911 O.2       11 UNK        -0.4986 
     69 C69        35.9223   -1.9887   -6.7268 C.3       12 UNK        -0.0947 
     70 S70        35.8183   -2.2415   -4.9192 S.3       12 UNK        -0.2240 
     71 C71        34.8215   -3.7586   -4.7706 C.3       12 UNK         0.0194 
     72 H72        26.2143   -5.5049   -3.4333 H         1 UNK         0.0906 
     73 H73        26.3426   -6.5931   -2.0471 H         1 UNK         0.0906 
     74 H74        27.7993   -5.9061   -2.7732 H         1 UNK         0.0906 
     75 H75        28.6594   -4.2745   -1.4996 H         1 UNK         0.3140 
     76 H76        27.1088   -2.8106    0.4403 H         1 UNK         0.1085 
     77 H77        29.0996   -3.1032    1.4107 H         1 UNK         0.0836 
     78 H78        29.5194   -1.6081    0.6712 H         1 UNK         0.0836 
     79 H79        30.8362   -1.3258   -1.3709 H         1 UNK         0.0731 
     80 H80        32.3794   -1.8861   -0.7767 H         1 UNK         0.0731 
     81 H81        33.9198   -2.8124   -2.3851 H         1 UNK         0.1312 
     82 H82        32.5355   -4.0533   -6.2486 H         1 UNK         0.1406 
     83 H83        29.7433   -2.7438   -3.2572 H         1 UNK         0.1631 
     84 H84        30.0211   -4.6932   -6.3028 H         1 UNK         0.0717 
     85 H85        30.0241   -3.0063   -6.7526 H         1 UNK         0.0717 
     86 H86        27.4702   -1.5371   -4.1880 H         1 UNK         0.0934 
     87 H87        29.0039   -1.3014   -4.9733 H         1 UNK         0.0934 
     88 H88        27.8907   -1.3502   -7.2040 H         1 UNK         0.0739 
     89 H89        25.4811   -1.9522   -5.7103 H         1 UNK         0.3093 
     90 H90        23.2959   -1.2941   -8.4681 H         1 UNK         0.0818 
     91 H91        24.1826   -3.5724   -9.0029 H         1 UNK         0.0819 
     92 H92        24.1615   -3.9966   -7.2968 H         1 UNK         0.0819 
     93 H93        22.6515   -3.6717   -8.1502 H         1 UNK         0.0819 
     94 H94        22.7983   -2.4222   -5.9033 H         1 UNK         0.3041 
     95 H95        21.7357    0.5052   -4.4162 H         1 UNK         0.0784 
     96 H96        20.8230   -1.8128   -4.7225 H         1 UNK         0.0793 
     97 H97        22.2466   -2.4888   -3.9329 H         1 UNK         0.0793 
     98 H98        21.1492   -1.4491   -3.0399 H         1 UNK         0.0793 
     99 H99        23.3528    0.7989   -2.9207 H         1 UNK         0.3024 
    100 H100       26.3609    0.3141   -2.7626 H         1 UNK         0.1171 
    101 H101       24.6027    1.6497   -1.6338 H         1 UNK         0.0786 
    102 H102       24.1580    0.2775   -0.6178 H         1 UNK         0.0786 
    103 H103       25.7241    1.0570   -0.4314 H         1 UNK         0.0786 
    104 H104       25.6397   -2.1824   -1.3991 H         1 UNK         0.2977 
    105 H105       25.4238    0.6316   -5.6561 H         1 UNK         0.3127 
    106 H106       27.1650    2.9738   -5.3663 H         1 UNK         0.0770 
    107 H107       24.1079    2.7957   -5.2603 H         1 UNK         0.0814 
    108 H108       25.0972    4.1704   -4.8118 H         1 UNK         0.0814 
    109 H109       25.1886    2.6939   -3.8694 H         1 UNK         0.0814 
    110 H110       24.7812    1.6739   -7.6859 H         1 UNK         0.2983 
    111 H111       24.9723    3.7865   -9.6105 H         1 UNK         0.0947 
    112 H112       24.1771    0.8453   -9.9730 H         1 UNK         0.0806 
    113 H113       23.8903    2.1351  -11.1315 H         1 UNK         0.0806 
    114 H114       23.0856    2.1687   -9.5705 H         1 UNK         0.0806 
    115 H115       26.7464    0.6805   -9.2639 H         1 UNK         0.3000 
    116 H116       28.3878    1.0518  -11.5880 H         1 UNK         0.0850 
    117 H117       29.5708   -0.9373  -10.7556 H         1 UNK         0.0810 
    118 H118       27.8438   -1.1808  -10.5466 H         1 UNK         0.0810 
    119 H119       28.8585   -0.7583   -9.1644 H         1 UNK         0.0810 
    120 H120       28.5897    2.5387   -8.5278 H         1 UNK         0.3040 
    121 H121       30.0019    3.8517   -7.4588 H         1 UNK         0.0766 
    122 H122       31.7293    3.9661   -9.9881 H         1 UNK         0.0812 
    123 H123       31.8118    5.0555   -8.6155 H         1 UNK         0.0812 
    124 H124       30.3740    5.0342   -9.6250 H         1 UNK         0.0812 
    125 H125       30.0624    1.4816   -6.6184 H         1 UNK         0.3205 
    126 H126       31.0495   -0.0066   -5.3563 H         1 UNK         0.0754 
    127 H127       33.2078    0.4565   -4.2351 H         1 UNK         0.0769 
    128 H128       32.2007    1.8889   -4.2373 H         1 UNK         0.0769 
    129 H129       33.5502    1.7741   -5.3582 H         1 UNK         0.0769 
    130 H130       34.2799   -0.1512   -5.9887 H         1 UNK         0.2981 
    131 H131       33.9993   -2.5858   -7.4547 H         1 UNK         0.0541 
    132 H132       34.6255    0.1043  -10.3736 H         1 UNK         0.3459 
    133 H133       34.0380    0.5743   -8.7972 H         1 UNK         0.3459 
    134 H134       36.6336   -1.1764   -6.8879 H         1 UNK         0.0612 
    135 H135       36.3778   -2.8767   -7.1687 H         1 UNK         0.0612 
    136 H136       34.8586   -4.3242   -5.7028 H         1 UNK         0.0624 
    137 H137       35.2738   -4.3971   -4.0105 H         1 UNK         0.0624 
@<TRIPOS>BOND
     1    1    2 1    
     2    1   72 1    
     3    1   73 1    
     4    1   74 1    
     5    2    3 2    
     6    2    4 am   BACKBONE|DICT|INTERRES
     7    4    5 1    
     8    4   75 1    
     9    5    6 1    
    10    5   35 1    
    11    5   76 1    
    12    6    7 1    
    13    6   77 1    
    14    6   78 1    
    15    7    8 1    
    16    8    9 1    
    17    8   79 1    
    18    8   80 1    
    19    9   10 ar   
    20    9   14 ar   
    21   10   11 ar   
    22   10   81 1    
    23   11   12 ar   
    24   11   71 1    
    25   12   13 ar   
    26   12   82 1    
    27   13   14 ar   
    28   13   15 1    
    29   14   83 1    
    30   15   16 1    
    31   15   84 1    
    32   15   85 1    
    33   16   17 1    
    34   17   18 1    
    35   17   86 1    
    36   17   87 1    
    37   18   19 1    
    38   18   37 1    
    39   18   88 1    
    40   19   20 am   BACKBONE|DICT|INTERRES
    41   19   89 1    
    42   20   21 2    
    43   20   22 1    
    44   22   23 1    
    45   22   24 1    
    46   22   90 1    
    47   23   91 1    
    48   23   92 1    
    49   23   93 1    
    50   24   25 am   BACKBONE|DICT|INTERRES
    51   24   94 1    
    52   25   26 2    
    53   25   27 1    
    54   27   28 1    
    55   27   29 1    
    56   27   95 1    
    57   28   96 1    
    58   28   97 1    
    59   28   98 1    
    60   29   30 am   BACKBONE|DICT|INTERRES
    61   29   99 1    
    62   30   31 2    
    63   30   32 1    
    64   32   33 1    
    65   32   34 1    
    66   32  100 1    
    67   33  101 1    
    68   33  102 1    
    69   33  103 1    
    70   34   35 am   BACKBONE|DICT|INTERRES
    71   34  104 1    
    72   35   36 2    
    73   37   38 2    
    74   37   39 am   BACKBONE|DICT|INTERRES
    75   39   40 1    
    76   39  105 1    
    77   40   41 1    
    78   40   42 1    
    79   40  106 1    
    80   41  107 1    
    81   41  108 1    
    82   41  109 1    
    83   42   43 2    
    84   42   44 am   BACKBONE|DICT|INTERRES
    85   44   45 1    
    86   44  110 1    
    87   45   46 1    
    88   45   47 1    
    89   45  111 1    
    90   46  112 1    
    91   46  113 1    
    92   46  114 1    
    93   47   48 2    
    94   47   49 am   BACKBONE|DICT|INTERRES
    95   49   50 1    
    96   49  115 1    
    97   50   51 1    
    98   50   52 1    
    99   50  116 1    
   100   51  117 1    
   101   51  118 1    
   102   51  119 1    
   103   52   53 2    
   104   52   54 am   BACKBONE|DICT|INTERRES
   105   54   55 1    
   106   54  120 1    
   107   55   56 1    
   108   55   57 1    
   109   55  121 1    
   110   56  122 1    
   111   56  123 1    
   112   56  124 1    
   113   57   58 2    
   114   57   59 am   BACKBONE|DICT|INTERRES
   115   59   60 1    
   116   59  125 1    
   117   60   61 1    
   118   60   62 1    
   119   60  126 1    
   120   61  127 1    
   121   61  128 1    
   122   61  129 1    
   123   62   63 2    
   124   62   64 am   BACKBONE|DICT|INTERRES
   125   64   65 1    
   126   64  130 1    
   127   65   66 1    
   128   65   69 1    
   129   65  131 1    
   130   66   67 am   BACKBONE|DICT|INTERRES
   131   66   68 2    
   132   67  132 1    
   133   67  133 1    
   134   69   70 1    
   135   69  134 1    
   136   69  135 1    
   137   70   71 1    
   138   71  136 1    
   139   71  137 1    
@<TRIPOS>SUBSTRUCTURE
     1 UNK         1 GROUP             0       ****    0 ROOT    
