@<TRIPOS>MOLECULE
3R137
137   139    1
SMALL
USER_CHARGES


@<TRIPOS>ATOM
      1 CA         23.8257   -5.9822   -3.0832 C.3       0 UNK        -0.2020 
      2 C          25.0659   -5.1124   -3.2177 C.2       0 UNK         0.4855 
      3 O          25.2421   -4.4568   -4.2443 O.2       0 UNK        -0.5197 
      4 N          25.9192   -5.0884   -2.1832 N.am      1 UNK        -0.4892 
      5 CA         27.1756   -4.3264   -2.1236 C.3       1 UNK         0.0835 
      6 C6         28.2314   -4.8732   -3.1280 C.3       12 UNK        -0.0855 
      7 S7         29.9452   -4.7034   -2.5200 S.3       12 UNK        -0.2931 
      8 C8         30.8459   -4.1670   -4.0121 C.3       12 UNK         0.0378 
      9 C9         31.5798   -2.8590   -3.7625 C.ar      12 UNK        -0.0802 
     10 C10        32.9665   -2.8349   -3.5890 C.ar      12 UNK        -0.0944 
     11 C11        33.6294   -1.6277   -3.3402 C.ar      12 UNK        -0.0787 
     12 C12        32.8889   -0.4453   -3.2319 C.ar      12 UNK        -0.0862 
     13 C13        31.5044   -0.4539   -3.4227 C.ar      12 UNK        -0.0733 
     14 C14        30.8623   -1.6639   -3.7059 C.ar      12 UNK        -0.0832 
     15 C15        30.7176    0.8497   -3.3742 C.3       12 UNK         0.0240 
     16 S16        29.1339    0.6764   -2.4834 S.3       12 UNK        -0.2522 
     17 C17        28.0887    1.9384   -3.2774 C.3       12 UNK        -0.0967 
     18 CA         27.7942    1.6944   -4.7821 C.3       5 UNK         0.0660 
     19 N          27.3528    0.3302   -5.1099 N.am      5 UNK        -0.4015 
     20 C          27.2166   -0.1228   -6.3677 C.2       4 UNK         0.4946 
     21 O          27.4958    0.5430   -7.3622 O.2       4 UNK        -0.5353 
     22 CA         26.6041   -1.5173   -6.5732 C.3       4 UNK         0.0277 
     23 CB         27.6754   -2.6123   -6.4641 C.3       4 UNK        -0.1981 
     24 N          25.4938   -1.7715   -5.6527 N.am      4 UNK        -0.4209 
     25 C          24.3397   -1.0853   -5.6785 C.2       3 UNK         0.4942 
     26 O          24.0595   -0.2555   -6.5430 O.2       3 UNK        -0.5208 
     27 CA         23.3612   -1.3011   -4.5126 C.3       3 UNK         0.0250 
     28 CB         22.4186   -2.4837   -4.7854 C.3       3 UNK        -0.1990 
     29 N          24.0560   -1.4819   -3.2356 N.am      3 UNK        -0.4232 
     30 C          24.7641   -0.5185   -2.6265 C.2       2 UNK         0.4993 
     31 O          24.8420    0.6366   -3.0462 O.2       2 UNK        -0.5286 
     32 CA         25.5495   -0.9129   -1.3633 C.3       2 UNK         0.0209 
     33 CB         24.7070   -0.6558   -0.1041 C.3       2 UNK        -0.1931 
     34 N          26.0113   -2.3060   -1.3688 N.am      2 UNK        -0.4546 
     35 C          26.9024   -2.8071   -2.2383 C.2       1 UNK         0.5154 
     36 O          27.4156   -2.1343   -3.1325 O.2       1 UNK        -0.5181 
     37 C          26.8187    2.7625   -5.3122 C.2       5 UNK         0.5014 
     38 O          27.2692    3.7434   -5.9048 O.2       5 UNK        -0.5248 
     39 N          25.5082    2.5394   -5.1308 N.am      6 UNK        -0.4434 
     40 CA         24.4387    3.3946   -5.6570 C.3       6 UNK         0.0363 
     41 CB         23.0828    2.9194   -5.1118 C.3       6 UNK        -0.1936 
     42 C          24.4161    3.4624   -7.1962 C.2       6 UNK         0.5081 
     43 O          24.1602    4.5311   -7.7512 O.2       6 UNK        -0.5248 
     44 N          24.7135    2.3351   -7.8560 N.am      7 UNK        -0.4718 
     45 CA         24.8559    2.2254   -9.3111 C.3       7 UNK         0.0273 
     46 CB         24.6879    0.7498   -9.7113 C.3       7 UNK        -0.1935 
     47 C          26.1924    2.7732   -9.8524 C.2       7 UNK         0.5018 
     48 O          26.3236    2.9051  -11.0701 O.2       7 UNK        -0.5186 
     49 N          27.1550    3.0548   -8.9600 N.am      8 UNK        -0.4240 
     50 CA         28.5502    3.4283   -9.2272 C.3       8 UNK         0.0235 
     51 CB         28.6362    4.8087   -9.9131 C.3       8 UNK        -0.2000 
     52 C          29.3198    2.3212   -9.9782 C.2       8 UNK         0.4941 
     53 O          30.0593    2.6087  -10.9221 O.2       8 UNK        -0.5273 
     54 N          29.1145    1.0730   -9.5456 N.am      9 UNK        -0.4262 
     55 CA         29.7005   -0.1465  -10.0941 C.3       9 UNK         0.0264 
     56 CB         28.5439   -1.0715  -10.5183 C.3       9 UNK        -0.1955 
     57 C          30.5901   -0.8331   -9.0434 C.2       9 UNK         0.5031 
     58 O          30.6218   -0.4120   -7.8841 O.2       9 UNK        -0.5390 
     59 N          31.2735   -1.9027   -9.4783 N.am      10 UNK        -0.4204 
     60 CA         32.1726   -2.7661   -8.6997 C.3       10 UNK         0.0237 
     61 CB         31.4004   -3.4754   -7.5620 C.3       10 UNK        -0.1985 
     62 C          33.4441   -2.0345   -8.2181 C.2       10 UNK         0.4970 
     63 O          33.8248   -1.0171   -8.8023 O.2       10 UNK        -0.4914 
     64 N          34.1020   -2.5967   -7.1944 N.am      11 UNK        -0.4285 
     65 CA         35.3362   -2.0890   -6.5687 C.3       11 UNK         0.1007 
     66 C          36.6172   -2.1933   -7.4539 C.2       11 UNK         0.5703 
     67 N          36.6161   -2.9820   -8.5225 N.am      11 UNK        -0.7361 
     68 O          37.6397   -1.5798   -7.1575 O.2       11 UNK        -0.4986 
     69 C69        35.1287   -0.6827   -5.9296 C.3       12 UNK        -0.0947 
     70 S70        35.9857   -0.4430   -4.3328 S.3       12 UNK        -0.2240 
     71 C71        35.1471   -1.6076   -3.1971 C.3       12 UNK         0.0194 
     72 H72        23.7865   -6.7043   -3.8983 H         1 UNK         0.0906 
     73 H73        23.8118   -6.5322   -2.1426 H         1 UNK         0.0906 
     74 H74        22.9279   -5.3667   -3.1307 H         1 UNK         0.0906 
     75 H75        25.7116   -5.6434   -1.3635 H         1 UNK         0.3140 
     76 H76        27.5620   -4.4837   -1.1149 H         1 UNK         0.1085 
     77 H77        28.1047   -4.4278   -4.1142 H         1 UNK         0.0836 
     78 H78        28.0752   -5.9422   -3.2810 H         1 UNK         0.0836 
     79 H79        30.1690   -4.0454   -4.8575 H         1 UNK         0.0731 
     80 H80        31.5471   -4.9518   -4.2994 H         1 UNK         0.0731 
     81 H81        33.5294   -3.7562   -3.6499 H         1 UNK         0.1312 
     82 H82        33.4002    0.4869   -3.0337 H         1 UNK         0.1406 
     83 H83        29.7933   -1.6817   -3.8626 H         1 UNK         0.1631 
     84 H84        30.5561    1.1662   -4.4026 H         1 UNK         0.0717 
     85 H85        31.2989    1.6384   -2.8943 H         1 UNK         0.0717 
     86 H86        27.1580    1.9833   -2.7089 H         1 UNK         0.0934 
     87 H87        28.5678    2.9100   -3.1403 H         1 UNK         0.0934 
     88 H88        28.7207    1.8517   -5.3353 H         1 UNK         0.0739 
     89 H89        27.1504   -0.2912   -4.3351 H         1 UNK         0.3093 
     90 H90        26.1979   -1.5546   -7.5860 H         1 UNK         0.0818 
     91 H91        27.2420   -3.6090   -6.5472 H         1 UNK         0.0819 
     92 H92        28.4117   -2.5065   -7.2616 H         1 UNK         0.0819 
     93 H93        28.2189   -2.5549   -5.5232 H         1 UNK         0.0819 
     94 H94        25.6380   -2.4714   -4.9319 H         1 UNK         0.3041 
     95 H95        22.7483   -0.4011   -4.4281 H         1 UNK         0.0784 
     96 H96        21.8328   -2.3071   -5.6885 H         1 UNK         0.0793 
     97 H97        22.9618   -3.4161   -4.9338 H         1 UNK         0.0793 
     98 H98        21.7138   -2.6293   -3.9667 H         1 UNK         0.0793 
     99 H99        24.0699   -2.4123   -2.8452 H         1 UNK         0.3024 
    100 H100       26.4323   -0.2709   -1.3219 H         1 UNK         0.1171 
    101 H101       25.2827   -0.8400    0.8031 H         1 UNK         0.0786 
    102 H102       24.3703    0.3814   -0.0663 H         1 UNK         0.0786 
    103 H103       23.8188   -1.2882   -0.0744 H         1 UNK         0.0786 
    104 H104       25.6082   -2.9244   -0.6795 H         1 UNK         0.2977 
    105 H105       25.2244    1.7374   -4.5718 H         1 UNK         0.3127 
    106 H106       24.6175    4.4062   -5.2866 H         1 UNK         0.0770 
    107 H107       22.8401    1.9135   -5.4544 H         1 UNK         0.0814 
    108 H108       22.2785    3.5783   -5.4414 H         1 UNK         0.0814 
    109 H109       23.0726    2.9132   -4.0217 H         1 UNK         0.0814 
    110 H110       24.8389    1.4799   -7.3224 H         1 UNK         0.2983 
    111 H111       24.0558    2.8009   -9.7816 H         1 UNK         0.0947 
    112 H112       24.7273    0.6295  -10.7947 H         1 UNK         0.0806 
    113 H113       23.7297    0.3529   -9.3753 H         1 UNK         0.0806 
    114 H114       25.4758    0.1277   -9.2858 H         1 UNK         0.0806 
    115 H115       26.9380    2.8865   -7.9849 H         1 UNK         0.3000 
    116 H116       29.0282    3.5171   -8.2504 H         1 UNK         0.0850 
    117 H117       29.6723    5.1400   -9.9919 H         1 UNK         0.0810 
    118 H118       28.0961    5.5665   -9.3456 H         1 UNK         0.0810 
    119 H119       28.2253    4.7878  -10.9227 H         1 UNK         0.0810 
    120 H120       28.5380    0.9322   -8.7133 H         1 UNK         0.3040 
    121 H121       30.3170    0.0830  -10.9656 H         1 UNK         0.0766 
    122 H122       27.8899   -0.5787  -11.2381 H         1 UNK         0.0812 
    123 H123       27.9327   -1.3661   -9.6640 H         1 UNK         0.0812 
    124 H124       28.9100   -1.9839  -10.9899 H         1 UNK         0.0812 
    125 H125       31.2047   -2.1345  -10.4594 H         1 UNK         0.3205 
    126 H126       32.5160   -3.5358   -9.3923 H         1 UNK         0.0754 
    127 H127       31.9824   -4.2844   -7.1202 H         1 UNK         0.0769 
    128 H128       30.4761   -3.9202   -7.9308 H         1 UNK         0.0769 
    129 H129       31.1380   -2.7811   -6.7628 H         1 UNK         0.0769 
    130 H130       33.7312   -3.4457   -6.7948 H         1 UNK         0.2981 
    131 H131       35.5196   -2.7980   -5.7622 H         1 UNK         0.0541 
    132 H132       37.4506   -3.0523   -9.0833 H         1 UNK         0.3459 
    133 H133       35.7922   -3.5026   -8.7754 H         1 UNK         0.3459 
    134 H134       34.0688   -0.4871   -5.7648 H         1 UNK         0.0612 
    135 H135       35.4487    0.1042   -6.6148 H         1 UNK         0.0612 
    136 H136       35.5618   -2.6036   -3.3579 H         1 UNK         0.0624 
    137 H137       35.4006   -1.3367   -2.1716 H         1 UNK         0.0624 
@<TRIPOS>BOND
     1    1    2 1    
     2    1   72 1    
     3    1   73 1    
     4    1   74 1    
     5    2    3 2    
     6    2    4 am   BACKBONE|DICT|INTERRES
     7    4    5 1    
     8    4   75 1    
     9    5    6 1    
    10    5   35 1    
    11    5   76 1    
    12    6    7 1    
    13    6   77 1    
    14    6   78 1    
    15    7    8 1    
    16    8    9 1    
    17    8   79 1    
    18    8   80 1    
    19    9   10 ar   
    20    9   14 ar   
    21   10   11 ar   
    22   10   81 1    
    23   11   12 ar   
    24   11   71 1    
    25   12   13 ar   
    26   12   82 1    
    27   13   14 ar   
    28   13   15 1    
    29   14   83 1    
    30   15   16 1    
    31   15   84 1    
    32   15   85 1    
    33   16   17 1    
    34   17   18 1    
    35   17   86 1    
    36   17   87 1    
    37   18   19 1    
    38   18   37 1    
    39   18   88 1    
    40   19   20 am   BACKBONE|DICT|INTERRES
    41   19   89 1    
    42   20   21 2    
    43   20   22 1    
    44   22   23 1    
    45   22   24 1    
    46   22   90 1    
    47   23   91 1    
    48   23   92 1    
    49   23   93 1    
    50   24   25 am   BACKBONE|DICT|INTERRES
    51   24   94 1    
    52   25   26 2    
    53   25   27 1    
    54   27   28 1    
    55   27   29 1    
    56   27   95 1    
    57   28   96 1    
    58   28   97 1    
    59   28   98 1    
    60   29   30 am   BACKBONE|DICT|INTERRES
    61   29   99 1    
    62   30   31 2    
    63   30   32 1    
    64   32   33 1    
    65   32   34 1    
    66   32  100 1    
    67   33  101 1    
    68   33  102 1    
    69   33  103 1    
    70   34   35 am   BACKBONE|DICT|INTERRES
    71   34  104 1    
    72   35   36 2    
    73   37   38 2    
    74   37   39 am   BACKBONE|DICT|INTERRES
    75   39   40 1    
    76   39  105 1    
    77   40   41 1    
    78   40   42 1    
    79   40  106 1    
    80   41  107 1    
    81   41  108 1    
    82   41  109 1    
    83   42   43 2    
    84   42   44 am   BACKBONE|DICT|INTERRES
    85   44   45 1    
    86   44  110 1    
    87   45   46 1    
    88   45   47 1    
    89   45  111 1    
    90   46  112 1    
    91   46  113 1    
    92   46  114 1    
    93   47   48 2    
    94   47   49 am   BACKBONE|DICT|INTERRES
    95   49   50 1    
    96   49  115 1    
    97   50   51 1    
    98   50   52 1    
    99   50  116 1    
   100   51  117 1    
   101   51  118 1    
   102   51  119 1    
   103   52   53 2    
   104   52   54 am   BACKBONE|DICT|INTERRES
   105   54   55 1    
   106   54  120 1    
   107   55   56 1    
   108   55   57 1    
   109   55  121 1    
   110   56  122 1    
   111   56  123 1    
   112   56  124 1    
   113   57   58 2    
   114   57   59 am   BACKBONE|DICT|INTERRES
   115   59   60 1    
   116   59  125 1    
   117   60   61 1    
   118   60   62 1    
   119   60  126 1    
   120   61  127 1    
   121   61  128 1    
   122   61  129 1    
   123   62   63 2    
   124   62   64 am   BACKBONE|DICT|INTERRES
   125   64   65 1    
   126   64  130 1    
   127   65   66 1    
   128   65   69 1    
   129   65  131 1    
   130   66   67 am   BACKBONE|DICT|INTERRES
   131   66   68 2    
   132   67  132 1    
   133   67  133 1    
   134   69   70 1    
   135   69  134 1    
   136   69  135 1    
   137   70   71 1    
   138   71  136 1    
   139   71  137 1    
@<TRIPOS>SUBSTRUCTURE
     1 UNK         1 GROUP             0       ****    0 ROOT    
