@<TRIPOS>MOLECULE
3R137
137   139    1
SMALL
USER_CHARGES


@<TRIPOS>ATOM
      1 CA         22.5536   -7.4880   -2.8161 C.3       0 UNK        -0.2020 
      2 C          23.1732   -6.1117   -3.0039 C.2       0 UNK         0.4855 
      3 O          22.7005   -5.3379   -3.8373 O.2       0 UNK        -0.5197 
      4 N          24.2181   -5.7943   -2.2258 N.am      1 UNK        -0.4892 
      5 CA         24.9936   -4.5425   -2.2195 C.3       1 UNK         0.0835 
      6 C6         25.6179   -4.2050   -3.6015 C.3       12 UNK        -0.0855 
      7 S7         27.1305   -3.1917   -3.4803 S.3       12 UNK        -0.2931 
      8 C8         28.4288   -4.4375   -3.7475 C.3       12 UNK         0.0378 
      9 C9         29.7568   -3.7662   -4.0567 C.ar      12 UNK        -0.0802 
     10 C10        30.1815   -3.6324   -5.3814 C.ar      12 UNK        -0.0944 
     11 C11        31.3874   -2.9924   -5.6788 C.ar      12 UNK        -0.0787 
     12 C12        32.1696   -2.4779   -4.6403 C.ar      12 UNK        -0.0862 
     13 C13        31.7462   -2.5895   -3.3121 C.ar      12 UNK        -0.0733 
     14 C14        30.5501   -3.2571   -3.0246 C.ar      12 UNK        -0.0832 
     15 C15        32.5547   -1.9455   -2.1941 C.3       12 UNK         0.0240 
     16 S16        31.5982   -0.6714   -1.3040 S.3       12 UNK        -0.2522 
     17 C17        31.3058    0.5961   -2.5920 C.3       12 UNK        -0.0967 
     18 CA         30.0430    0.3332   -3.4629 C.3       5 UNK         0.0660 
     19 N          28.8415   -0.0177   -2.6997 N.am      5 UNK        -0.4015 
     20 C          28.1369    0.7802   -1.8885 C.2       4 UNK         0.4946 
     21 O          28.4258    1.9504   -1.6291 O.2       4 UNK        -0.5353 
     22 CA         26.8618    0.1542   -1.2977 C.3       4 UNK         0.0277 
     23 CB         26.6583    0.5676    0.1703 C.3       4 UNK        -0.1981 
     24 N          25.6432    0.4664   -2.0525 N.am      4 UNK        -0.4209 
     25 C          25.4412    0.3392   -3.3726 C.2       3 UNK         0.4942 
     26 O          26.3123    0.0331   -4.1870 O.2       3 UNK        -0.5208 
     27 CA         23.9885    0.5105   -3.8466 C.3       3 UNK         0.0250 
     28 CB         23.8681    0.5474   -5.3822 C.3       3 UNK        -0.1990 
     29 N          23.1941   -0.6049   -3.3325 N.am      3 UNK        -0.4232 
     30 C          22.6472   -0.6589   -2.1106 C.2       2 UNK         0.4993 
     31 O          22.6237    0.2926   -1.3287 O.2       2 UNK        -0.5286 
     32 CA         22.1039   -2.0257   -1.6649 C.3       2 UNK         0.0209 
     33 CB         20.6856   -2.2587   -2.2093 C.3       2 UNK        -0.1931 
     34 N          22.9767   -3.1305   -2.0756 N.am      2 UNK        -0.4546 
     35 C          24.2180   -3.3489   -1.6176 C.2       1 UNK         0.5154 
     36 O          24.7437   -2.6687   -0.7358 O.2       1 UNK        -0.5181 
     37 C          29.7824    1.4350   -4.5150 C.2       5 UNK         0.5014 
     38 O          30.6788    2.2232   -4.8190 O.2       5 UNK        -0.5248 
     39 N          28.5655    1.4514   -5.0721 N.am      6 UNK        -0.4434 
     40 CA         28.1236    2.3381   -6.1471 C.3       6 UNK         0.0363 
     41 CB         27.3434    3.5178   -5.5377 C.3       6 UNK        -0.1936 
     42 C          27.2896    1.5641   -7.1845 C.2       6 UNK         0.5081 
     43 O          26.5396    2.1803   -7.9423 O.2       6 UNK        -0.5248 
     44 N          27.4175    0.2283   -7.1993 N.am      7 UNK        -0.4718 
     45 CA         26.6751   -0.6863   -8.0723 C.3       7 UNK         0.0273 
     46 CB         26.8762   -2.1240   -7.5653 C.3       7 UNK        -0.1935 
     47 C          27.0571   -0.5710   -9.5598 C.2       7 UNK         0.5018 
     48 O          26.2460   -0.9131  -10.4215 O.2       7 UNK        -0.5186 
     49 N          28.2695   -0.0809   -9.8309 N.am      8 UNK        -0.4240 
     50 CA         28.8091    0.2352  -11.1459 C.3       8 UNK         0.0235 
     51 CB         29.4282   -1.0280  -11.7723 C.3       8 UNK        -0.2000 
     52 C          29.8645    1.3293  -10.9581 C.2       8 UNK         0.4941 
     53 O          30.3675    1.5052   -9.8451 O.2       8 UNK        -0.5273 
     54 N          30.2303    2.0126  -12.0513 N.am      9 UNK        -0.4262 
     55 CA         31.2761    3.0465  -12.0706 C.3       9 UNK         0.0264 
     56 CB         31.3296    3.6957  -13.4630 C.3       9 UNK        -0.1955 
     57 C          32.6687    2.5262  -11.6633 C.2       9 UNK         0.5031 
     58 O          33.4621    3.2836  -11.1028 O.2       9 UNK        -0.5390 
     59 N          32.9205    1.2338  -11.9143 N.am      10 UNK        -0.4204 
     60 CA         34.1209    0.5048  -11.5030 C.3       10 UNK         0.0237 
     61 CB         34.1402   -0.8593  -12.2131 C.3       10 UNK        -0.1985 
     62 C          34.2533    0.3149   -9.9790 C.2       10 UNK         0.4970 
     63 O          35.3623    0.0425   -9.5171 O.2       10 UNK        -0.4914 
     64 N          33.1504    0.4464   -9.2268 N.am      11 UNK        -0.4285 
     65 CA         33.1358    0.3263   -7.7605 C.3       11 UNK         0.1007 
     66 C          33.7333    1.5530   -7.0121 C.2       11 UNK         0.5703 
     67 N          33.9571    2.6892   -7.6645 N.am      11 UNK        -0.7361 
     68 O          34.0239    1.4606   -5.8221 O.2       11 UNK        -0.4986 
     69 C69        31.7286   -0.0269   -7.2114 C.3       12 UNK        -0.0947 
     70 S70        30.9839   -1.5011   -7.9867 S.3       12 UNK        -0.2240 
     71 C71        31.8386   -2.8575   -7.1248 C.3       12 UNK         0.0194 
     72 H72        21.5078   -7.3916   -2.5256 H         1 UNK         0.0906 
     73 H73        22.5974   -8.0485   -3.7496 H         1 UNK         0.0906 
     74 H74        23.0672   -8.0670   -2.0488 H         1 UNK         0.0906 
     75 H75        24.5233   -6.4727   -1.5404 H         1 UNK         0.3140 
     76 H76        25.8169   -4.7411   -1.5307 H         1 UNK         0.1085 
     77 H77        25.8609   -5.1257   -4.1336 H         1 UNK         0.0836 
     78 H78        24.9027   -3.6864   -4.2427 H         1 UNK         0.0836 
     79 H79        28.5198   -5.0668   -2.8609 H         1 UNK         0.0731 
     80 H80        28.1473   -5.0968   -4.5701 H         1 UNK         0.0731 
     81 H81        29.5688   -4.0171   -6.1854 H         1 UNK         0.1312 
     82 H82        33.0941   -1.9655   -4.8699 H         1 UNK         0.1406 
     83 H83        30.2159   -3.3407   -1.9991 H         1 UNK         0.1631 
     84 H84        33.4733   -1.4988   -2.5778 H         1 UNK         0.0717 
     85 H85        32.8590   -2.7177   -1.4863 H         1 UNK         0.0717 
     86 H86        31.2155    1.5610   -2.0899 H         1 UNK         0.0934 
     87 H87        32.1947    0.6676   -3.2223 H         1 UNK         0.0934 
     88 H88        30.2425   -0.5466   -4.0703 H         1 UNK         0.0739 
     89 H89        28.4730   -0.9419   -2.8842 H         1 UNK         0.3093 
     90 H90        26.9766   -0.9316   -1.3162 H         1 UNK         0.0818 
     91 H91        27.5489    0.3536    0.7629 H         1 UNK         0.0819 
     92 H92        26.4512    1.6343    0.2651 H         1 UNK         0.0819 
     93 H93        25.8302    0.0217    0.6233 H         1 UNK         0.0819 
     94 H94        24.8292    0.6886   -1.4929 H         1 UNK         0.3041 
     95 H95        23.6089    1.4558   -3.4525 H         1 UNK         0.0784 
     96 H96        22.8344    0.6937   -5.6954 H         1 UNK         0.0793 
     97 H97        24.4525    1.3687   -5.7992 H         1 UNK         0.0793 
     98 H98        24.2300   -0.3743   -5.8397 H         1 UNK         0.0793 
     99 H99        23.2002   -1.4503   -3.8844 H         1 UNK         0.3024 
    100 H100       22.0584   -2.0203   -0.5733 H         1 UNK         0.1171 
    101 H101       20.6712   -2.3036   -3.2991 H         1 UNK         0.0786 
    102 H102       20.0142   -1.4541   -1.9059 H         1 UNK         0.0786 
    103 H103       20.2648   -3.1905   -1.8307 H         1 UNK         0.0786 
    104 H104       22.6292   -3.7727   -2.7842 H         1 UNK         0.2977 
    105 H105       27.8509    0.8093   -4.7239 H         1 UNK         0.3127 
    106 H106       28.9903    2.7302   -6.6837 H         1 UNK         0.0770 
    107 H107       26.4412    3.1781   -5.0276 H         1 UNK         0.0814 
    108 H108       27.0394    4.2295   -6.3061 H         1 UNK         0.0814 
    109 H109       27.9515    4.0626   -4.8154 H         1 UNK         0.0814 
    110 H110       28.0551   -0.1978   -6.5432 H         1 UNK         0.2983 
    111 H111       25.6149   -0.4379   -7.9915 H         1 UNK         0.0947 
    112 H112       26.3075   -2.8339   -8.1672 H         1 UNK         0.0806 
    113 H113       26.5391   -2.2311   -6.5335 H         1 UNK         0.0806 
    114 H114       27.9239   -2.4242   -7.6087 H         1 UNK         0.0806 
    115 H115       28.8657    0.2100   -9.0649 H         1 UNK         0.3000 
    116 H116       28.0113    0.6214  -11.7840 H         1 UNK         0.0850 
    117 H117       30.2419   -1.4218  -11.1614 H         1 UNK         0.0810 
    118 H118       28.6858   -1.8183  -11.8850 H         1 UNK         0.0810 
    119 H119       29.8309   -0.8222  -12.7645 H         1 UNK         0.0810 
    120 H120       29.7726    1.8128  -12.9299 H         1 UNK         0.3040 
    121 H121       30.9938    3.8134  -11.3460 H         1 UNK         0.0766 
    122 H122       30.3754    4.1529  -13.7256 H         1 UNK         0.0812 
    123 H123       31.5814    2.9713  -14.2386 H         1 UNK         0.0812 
    124 H124       32.0834    4.4838  -13.4967 H         1 UNK         0.0812 
    125 H125       32.2062    0.6989  -12.3852 H         1 UNK         0.3205 
    126 H126       34.9896    1.0777  -11.8342 H         1 UNK         0.0754 
    127 H127       35.0414   -1.4196  -11.9594 H         1 UNK         0.0769 
    128 H128       34.1290   -0.7440  -13.2972 H         1 UNK         0.0769 
    129 H129       33.2845   -1.4740  -11.9300 H         1 UNK         0.0769 
    130 H130       32.2671    0.7032   -9.6523 H         1 UNK         0.2981 
    131 H131       33.7900   -0.5085   -7.5036 H         1 UNK         0.0541 
    132 H132       34.3523    3.4718   -7.1681 H         1 UNK         0.3459 
    133 H133       33.7351    2.7721   -8.6457 H         1 UNK         0.3459 
    134 H134       31.0455    0.8093   -7.3673 H         1 UNK         0.0612 
    135 H135       31.7664   -0.1797   -6.1333 H         1 UNK         0.0612 
    136 H136       32.9175   -2.7098   -7.1835 H         1 UNK         0.0624 
    137 H137       31.6326   -3.7884   -7.6549 H         1 UNK         0.0624 
@<TRIPOS>BOND
     1    1    2 1    
     2    1   72 1    
     3    1   73 1    
     4    1   74 1    
     5    2    3 2    
     6    2    4 am   BACKBONE|DICT|INTERRES
     7    4    5 1    
     8    4   75 1    
     9    5    6 1    
    10    5   35 1    
    11    5   76 1    
    12    6    7 1    
    13    6   77 1    
    14    6   78 1    
    15    7    8 1    
    16    8    9 1    
    17    8   79 1    
    18    8   80 1    
    19    9   10 ar   
    20    9   14 ar   
    21   10   11 ar   
    22   10   81 1    
    23   11   12 ar   
    24   11   71 1    
    25   12   13 ar   
    26   12   82 1    
    27   13   14 ar   
    28   13   15 1    
    29   14   83 1    
    30   15   16 1    
    31   15   84 1    
    32   15   85 1    
    33   16   17 1    
    34   17   18 1    
    35   17   86 1    
    36   17   87 1    
    37   18   19 1    
    38   18   37 1    
    39   18   88 1    
    40   19   20 am   BACKBONE|DICT|INTERRES
    41   19   89 1    
    42   20   21 2    
    43   20   22 1    
    44   22   23 1    
    45   22   24 1    
    46   22   90 1    
    47   23   91 1    
    48   23   92 1    
    49   23   93 1    
    50   24   25 am   BACKBONE|DICT|INTERRES
    51   24   94 1    
    52   25   26 2    
    53   25   27 1    
    54   27   28 1    
    55   27   29 1    
    56   27   95 1    
    57   28   96 1    
    58   28   97 1    
    59   28   98 1    
    60   29   30 am   BACKBONE|DICT|INTERRES
    61   29   99 1    
    62   30   31 2    
    63   30   32 1    
    64   32   33 1    
    65   32   34 1    
    66   32  100 1    
    67   33  101 1    
    68   33  102 1    
    69   33  103 1    
    70   34   35 am   BACKBONE|DICT|INTERRES
    71   34  104 1    
    72   35   36 2    
    73   37   38 2    
    74   37   39 am   BACKBONE|DICT|INTERRES
    75   39   40 1    
    76   39  105 1    
    77   40   41 1    
    78   40   42 1    
    79   40  106 1    
    80   41  107 1    
    81   41  108 1    
    82   41  109 1    
    83   42   43 2    
    84   42   44 am   BACKBONE|DICT|INTERRES
    85   44   45 1    
    86   44  110 1    
    87   45   46 1    
    88   45   47 1    
    89   45  111 1    
    90   46  112 1    
    91   46  113 1    
    92   46  114 1    
    93   47   48 2    
    94   47   49 am   BACKBONE|DICT|INTERRES
    95   49   50 1    
    96   49  115 1    
    97   50   51 1    
    98   50   52 1    
    99   50  116 1    
   100   51  117 1    
   101   51  118 1    
   102   51  119 1    
   103   52   53 2    
   104   52   54 am   BACKBONE|DICT|INTERRES
   105   54   55 1    
   106   54  120 1    
   107   55   56 1    
   108   55   57 1    
   109   55  121 1    
   110   56  122 1    
   111   56  123 1    
   112   56  124 1    
   113   57   58 2    
   114   57   59 am   BACKBONE|DICT|INTERRES
   115   59   60 1    
   116   59  125 1    
   117   60   61 1    
   118   60   62 1    
   119   60  126 1    
   120   61  127 1    
   121   61  128 1    
   122   61  129 1    
   123   62   63 2    
   124   62   64 am   BACKBONE|DICT|INTERRES
   125   64   65 1    
   126   64  130 1    
   127   65   66 1    
   128   65   69 1    
   129   65  131 1    
   130   66   67 am   BACKBONE|DICT|INTERRES
   131   66   68 2    
   132   67  132 1    
   133   67  133 1    
   134   69   70 1    
   135   69  134 1    
   136   69  135 1    
   137   70   71 1    
   138   71  136 1    
   139   71  137 1    
@<TRIPOS>SUBSTRUCTURE
     1 UNK         1 GROUP             0       ****    0 ROOT    
