@<TRIPOS>MOLECULE
3R137
137   139    1
SMALL
USER_CHARGES


@<TRIPOS>ATOM
      1 CA         26.4714   -6.3845   -3.1619 C.3       0 UNK        -0.2020 
      2 C          26.3232   -5.8439   -1.7477 C.2       0 UNK         0.4855 
      3 O          25.3377   -6.1531   -1.0780 O.2       0 UNK        -0.5197 
      4 N          27.2920   -5.0415   -1.2843 N.am      1 UNK        -0.4892 
      5 CA         27.2774   -4.3914    0.0335 C.3       1 UNK         0.0835 
      6 C6         28.6953   -3.9807    0.5155 C.3       12 UNK        -0.0855 
      7 S7         29.6580   -3.0196   -0.7056 S.3       12 UNK        -0.2931 
      8 C8         30.9248   -4.2259   -1.2268 C.3       12 UNK         0.0378 
      9 C9         31.2282   -4.0565   -2.7056 C.ar      12 UNK        -0.0802 
     10 C10        32.3488   -3.3401   -3.1381 C.ar      12 UNK        -0.0944 
     11 C11        32.5633   -3.1260   -4.5045 C.ar      12 UNK        -0.0787 
     12 C12        31.6490   -3.6276   -5.4358 C.ar      12 UNK        -0.0862 
     13 C13        30.5187   -4.3300   -5.0094 C.ar      12 UNK        -0.0733 
     14 C14        30.3378   -4.5742   -3.6477 C.ar      12 UNK        -0.0832 
     15 C15        29.4378   -4.7343   -6.0029 C.3       12 UNK         0.0240 
     16 S16        27.8465   -3.9150   -5.6278 S.3       12 UNK        -0.2522 
     17 C17        28.3329   -2.1550   -5.5533 C.3       12 UNK        -0.0967 
     18 CA         27.5249   -1.2926   -6.5421 C.3       5 UNK         0.0660 
     19 N          26.1167   -1.1720   -6.1577 N.am      5 UNK        -0.4015 
     20 C          25.1459   -0.7768   -6.9942 C.2       4 UNK         0.4946 
     21 O          25.3409   -0.4922   -8.1756 O.2       4 UNK        -0.5353 
     22 CA         23.7357   -0.6012   -6.4023 C.3       4 UNK         0.0277 
     23 CB         22.9930   -1.9461   -6.3693 C.3       4 UNK        -0.1981 
     24 N          23.7565   -0.0159   -5.0592 N.am      4 UNK        -0.4209 
     25 C          24.2934    1.1757   -4.7606 C.2       3 UNK         0.4942 
     26 O          24.6999    1.9633   -5.6140 O.2       3 UNK        -0.5208 
     27 CA         24.4623    1.5429   -3.2742 C.3       3 UNK         0.0250 
     28 CB         23.4550    2.6344   -2.8776 C.3       3 UNK        -0.1990 
     29 N          24.3601    0.4276   -2.3235 N.am      3 UNK        -0.4232 
     30 C          25.1186   -0.6785   -2.2958 C.2       2 UNK         0.4993 
     31 O          25.9718   -0.9588   -3.1439 O.2       2 UNK        -0.5286 
     32 CA         24.8194   -1.6513   -1.1500 C.3       2 UNK         0.0209 
     33 CB         23.4792   -2.3762   -1.3811 C.3       2 UNK        -0.1931 
     34 N          25.8830   -2.6458   -1.0287 N.am      2 UNK        -0.4546 
     35 C          26.2597   -3.2306    0.1170 C.2       1 UNK         0.5154 
     36 O          25.8043   -2.9156    1.2184 O.2       1 UNK        -0.5181 
     37 C          28.1936    0.0810   -6.7350 C.2       5 UNK         0.5014 
     38 O          29.0789    0.1935   -7.5828 O.2       5 UNK        -0.5248 
     39 N          27.7525    1.1122   -5.9999 N.am      6 UNK        -0.4434 
     40 CA         28.2205    2.4913   -6.1800 C.3       6 UNK         0.0363 
     41 CB         27.7539    3.3676   -5.0066 C.3       6 UNK        -0.1936 
     42 C          27.7903    3.0951   -7.5312 C.2       6 UNK         0.5081 
     43 O          28.4720    3.9888   -8.0312 O.2       6 UNK        -0.5248 
     44 N          26.6951    2.5836   -8.1089 N.am      7 UNK        -0.4718 
     45 CA         26.2666    2.8850   -9.4719 C.3       7 UNK         0.0273 
     46 CB         24.7357    2.7694   -9.5671 C.3       7 UNK        -0.1935 
     47 C          26.9569    1.9668  -10.4952 C.2       7 UNK         0.5018 
     48 O          27.5122    2.4695  -11.4724 O.2       7 UNK        -0.5186 
     49 N          26.8821    0.6449  -10.2761 N.am      8 UNK        -0.4240 
     50 CA         27.3157   -0.3763  -11.2341 C.3       8 UNK         0.0235 
     51 CB         26.6822   -1.7301  -10.8711 C.3       8 UNK        -0.2000 
     52 C          28.8404   -0.5130  -11.3688 C.2       8 UNK         0.4941 
     53 O          29.3425   -0.5262  -12.4938 O.2       8 UNK        -0.5273 
     54 N          29.5433   -0.6453  -10.2369 N.am      9 UNK        -0.4262 
     55 CA         30.9973   -0.8191  -10.1826 C.3       9 UNK         0.0264 
     56 CB         31.3660   -1.7939   -9.0488 C.3       9 UNK        -0.1955 
     57 C          31.7088    0.5265   -9.9933 C.2       9 UNK         0.5031 
     58 O          32.7404    0.7536  -10.6267 O.2       9 UNK        -0.5390 
     59 N          31.1425    1.3850   -9.1305 N.am      10 UNK        -0.4204 
     60 CA         31.6159    2.7302   -8.7766 C.3       10 UNK         0.0237 
     61 CB         31.4830    3.6903   -9.9778 C.3       10 UNK        -0.1985 
     62 C          33.0204    2.7426   -8.1392 C.2       10 UNK         0.4970 
     63 O          33.7956    3.6739   -8.3659 O.2       10 UNK        -0.4914 
     64 N          33.3165    1.7050   -7.3480 N.am      11 UNK        -0.4285 
     65 CA         34.5408    1.5593   -6.5508 C.3       11 UNK         0.1007 
     66 C          34.6516    2.5903   -5.3907 C.2       11 UNK         0.5703 
     67 N          35.8589    2.8394   -4.9008 N.am      11 UNK        -0.7361 
     68 O          33.6623    3.1469   -4.9161 O.2       11 UNK        -0.4986 
     69 C69        34.7167    0.0962   -6.0604 C.3       12 UNK        -0.0947 
     70 S70        33.2680   -0.5604   -5.1658 S.3       12 UNK        -0.2240 
     71 C71        33.7471   -2.3031   -4.9824 C.3       12 UNK         0.0194 
     72 H72        27.4928   -6.3013   -3.5285 H         1 UNK         0.0906 
     73 H73        26.1918   -7.4373   -3.1940 H         1 UNK         0.0906 
     74 H74        25.8182   -5.8384   -3.8421 H         1 UNK         0.0906 
     75 H75        28.0716   -4.7888   -1.8725 H         1 UNK         0.3140 
     76 H76        26.9148   -5.1336    0.7490 H         1 UNK         0.1085 
     77 H77        28.6339   -3.3996    1.4380 H         1 UNK         0.0836 
     78 H78        29.2537   -4.8769    0.7891 H         1 UNK         0.0836 
     79 H79        31.8248   -4.0909   -0.6248 H         1 UNK         0.0731 
     80 H80        30.5829   -5.2466   -1.0493 H         1 UNK         0.0731 
     81 H81        33.0349   -2.9225   -2.4138 H         1 UNK         0.1312 
     82 H82        31.7936   -3.4251   -6.4881 H         1 UNK         0.1406 
     83 H83        29.4616   -5.1102   -3.3190 H         1 UNK         0.1631 
     84 H84        29.3014   -5.8161   -5.9724 H         1 UNK         0.0717 
     85 H85        29.7318   -4.4846   -7.0237 H         1 UNK         0.0717 
     86 H86        28.2113   -1.7989   -4.5284 H         1 UNK         0.0934 
     87 H87        29.3971   -2.0651   -5.7739 H         1 UNK         0.0934 
     88 H88        27.5614   -1.7873   -7.5151 H         1 UNK         0.0739 
     89 H89        25.9013   -1.3381   -5.1798 H         1 UNK         0.3093 
     90 H90        23.1868    0.0815   -7.0546 H         1 UNK         0.0818 
     91 H91        21.9643   -1.8235   -6.0299 H         1 UNK         0.0819 
     92 H92        22.9527   -2.3922   -7.3642 H         1 UNK         0.0819 
     93 H93        23.4820   -2.6644   -5.7098 H         1 UNK         0.0819 
     94 H94        23.4387   -0.5983   -4.2990 H         1 UNK         0.3041 
     95 H95        25.4673    1.9566   -3.1695 H         1 UNK         0.0784 
     96 H96        23.5284    3.4961   -3.5432 H         1 UNK         0.0793 
     97 H97        22.4273    2.2721   -2.9267 H         1 UNK         0.0793 
     98 H98        23.6374    2.9964   -1.8656 H         1 UNK         0.0793 
     99 H99        23.6695    0.5429   -1.5952 H         1 UNK         0.3024 
    100 H100       24.7636   -1.0660   -0.2289 H         1 UNK         0.1171 
    101 H101       23.4950   -2.9661   -2.2987 H         1 UNK         0.0786 
    102 H102       23.2488   -3.0526   -0.5576 H         1 UNK         0.0786 
    103 H103       22.6495   -1.6725   -1.4568 H         1 UNK         0.0786 
    104 H104       26.3512   -2.8883   -1.8919 H         1 UNK         0.2977 
    105 H105       27.0004    0.9630   -5.3431 H         1 UNK         0.3127 
    106 H106       29.3124    2.4725   -6.1653 H         1 UNK         0.0770 
    107 H107       26.6724    3.4977   -4.9965 H         1 UNK         0.0814 
    108 H108       28.1941    4.3634   -5.0731 H         1 UNK         0.0814 
    109 H109       28.0543    2.9455   -4.0476 H         1 UNK         0.0814 
    110 H110       26.1668    1.8836   -7.6045 H         1 UNK         0.2983 
    111 H111       26.5362    3.9156   -9.7148 H         1 UNK         0.0947 
    112 H112       24.3899    2.9983  -10.5760 H         1 UNK         0.0806 
    113 H113       24.2455    3.4689   -8.8898 H         1 UNK         0.0806 
    114 H114       24.3829    1.7675   -9.3208 H         1 UNK         0.0806 
    115 H115       26.3714    0.3099   -9.4605 H         1 UNK         0.3000 
    116 H116       26.9303   -0.0888  -12.2151 H         1 UNK         0.0850 
    117 H117       26.9623   -2.4992  -11.5922 H         1 UNK         0.0810 
    118 H118       25.5936   -1.6694  -10.8690 H         1 UNK         0.0810 
    119 H119       26.9969   -2.0759   -9.8864 H         1 UNK         0.0810 
    120 H120       29.0708   -0.5424   -9.3444 H         1 UNK         0.3040 
    121 H121       31.3506   -1.2551  -11.1197 H         1 UNK         0.0766 
    122 H122       30.8827   -2.7611   -9.1865 H         1 UNK         0.0812 
    123 H123       31.0808   -1.4152   -8.0672 H         1 UNK         0.0812 
    124 H124       32.4423   -1.9702   -9.0249 H         1 UNK         0.0812 
    125 H125       30.3222    1.0578   -8.6221 H         1 UNK         0.3205 
    126 H126       30.9455    3.0896   -7.9966 H         1 UNK         0.0754 
    127 H127       31.7027    4.7175   -9.6845 H         1 UNK         0.0769 
    128 H128       30.4685    3.6805  -10.3775 H         1 UNK         0.0769 
    129 H129       32.1664    3.4273  -10.7856 H         1 UNK         0.0769 
    130 H130       32.6132    0.9993   -7.1901 H         1 UNK         0.2981 
    131 H131       35.3719    1.7723   -7.2261 H         1 UNK         0.0541 
    132 H132       35.9526    3.4971   -4.1427 H         1 UNK         0.3459 
    133 H133       36.6784    2.3863   -5.2744 H         1 UNK         0.3459 
    134 H134       35.5999   -0.0030   -5.4268 H         1 UNK         0.0612 
    135 H135       34.8973   -0.5469   -6.9232 H         1 UNK         0.0612 
    136 H136       34.1052   -2.6895   -5.9379 H         1 UNK         0.0624 
    137 H137       34.5789   -2.3805   -4.2806 H         1 UNK         0.0624 
@<TRIPOS>BOND
     1    1    2 1    
     2    1   72 1    
     3    1   73 1    
     4    1   74 1    
     5    2    3 2    
     6    2    4 am   BACKBONE|DICT|INTERRES
     7    4    5 1    
     8    4   75 1    
     9    5    6 1    
    10    5   35 1    
    11    5   76 1    
    12    6    7 1    
    13    6   77 1    
    14    6   78 1    
    15    7    8 1    
    16    8    9 1    
    17    8   79 1    
    18    8   80 1    
    19    9   10 ar   
    20    9   14 ar   
    21   10   11 ar   
    22   10   81 1    
    23   11   12 ar   
    24   11   71 1    
    25   12   13 ar   
    26   12   82 1    
    27   13   14 ar   
    28   13   15 1    
    29   14   83 1    
    30   15   16 1    
    31   15   84 1    
    32   15   85 1    
    33   16   17 1    
    34   17   18 1    
    35   17   86 1    
    36   17   87 1    
    37   18   19 1    
    38   18   37 1    
    39   18   88 1    
    40   19   20 am   BACKBONE|DICT|INTERRES
    41   19   89 1    
    42   20   21 2    
    43   20   22 1    
    44   22   23 1    
    45   22   24 1    
    46   22   90 1    
    47   23   91 1    
    48   23   92 1    
    49   23   93 1    
    50   24   25 am   BACKBONE|DICT|INTERRES
    51   24   94 1    
    52   25   26 2    
    53   25   27 1    
    54   27   28 1    
    55   27   29 1    
    56   27   95 1    
    57   28   96 1    
    58   28   97 1    
    59   28   98 1    
    60   29   30 am   BACKBONE|DICT|INTERRES
    61   29   99 1    
    62   30   31 2    
    63   30   32 1    
    64   32   33 1    
    65   32   34 1    
    66   32  100 1    
    67   33  101 1    
    68   33  102 1    
    69   33  103 1    
    70   34   35 am   BACKBONE|DICT|INTERRES
    71   34  104 1    
    72   35   36 2    
    73   37   38 2    
    74   37   39 am   BACKBONE|DICT|INTERRES
    75   39   40 1    
    76   39  105 1    
    77   40   41 1    
    78   40   42 1    
    79   40  106 1    
    80   41  107 1    
    81   41  108 1    
    82   41  109 1    
    83   42   43 2    
    84   42   44 am   BACKBONE|DICT|INTERRES
    85   44   45 1    
    86   44  110 1    
    87   45   46 1    
    88   45   47 1    
    89   45  111 1    
    90   46  112 1    
    91   46  113 1    
    92   46  114 1    
    93   47   48 2    
    94   47   49 am   BACKBONE|DICT|INTERRES
    95   49   50 1    
    96   49  115 1    
    97   50   51 1    
    98   50   52 1    
    99   50  116 1    
   100   51  117 1    
   101   51  118 1    
   102   51  119 1    
   103   52   53 2    
   104   52   54 am   BACKBONE|DICT|INTERRES
   105   54   55 1    
   106   54  120 1    
   107   55   56 1    
   108   55   57 1    
   109   55  121 1    
   110   56  122 1    
   111   56  123 1    
   112   56  124 1    
   113   57   58 2    
   114   57   59 am   BACKBONE|DICT|INTERRES
   115   59   60 1    
   116   59  125 1    
   117   60   61 1    
   118   60   62 1    
   119   60  126 1    
   120   61  127 1    
   121   61  128 1    
   122   61  129 1    
   123   62   63 2    
   124   62   64 am   BACKBONE|DICT|INTERRES
   125   64   65 1    
   126   64  130 1    
   127   65   66 1    
   128   65   69 1    
   129   65  131 1    
   130   66   67 am   BACKBONE|DICT|INTERRES
   131   66   68 2    
   132   67  132 1    
   133   67  133 1    
   134   69   70 1    
   135   69  134 1    
   136   69  135 1    
   137   70   71 1    
   138   71  136 1    
   139   71  137 1    
@<TRIPOS>SUBSTRUCTURE
     1 UNK         1 GROUP             0       ****    0 ROOT    
