@<TRIPOS>MOLECULE
3R137
137   139    1
SMALL
USER_CHARGES


@<TRIPOS>ATOM
      1 CA         26.3779   -6.9978   -2.7652 C.3       0 UNK        -0.2020 
      2 C          26.9835   -5.6027   -2.7560 C.2       0 UNK         0.4855 
      3 O          27.0748   -4.9737   -3.8093 O.2       0 UNK        -0.5197 
      4 N          27.3820   -5.1135   -1.5723 N.am      1 UNK        -0.4892 
      5 CA         28.0106   -3.8057   -1.3300 C.3       1 UNK         0.0835 
      6 C6         29.4797   -3.7371   -1.8538 C.3       12 UNK        -0.0855 
      7 S7         30.6808   -3.3122   -0.5454 S.3       12 UNK        -0.2931 
      8 C8         30.5168   -1.4943   -0.4105 C.3       12 UNK         0.0378 
      9 C9         30.8318   -0.7005   -1.6792 C.ar      12 UNK        -0.0802 
     10 C10        31.7074   -1.1767   -2.6620 C.ar      12 UNK        -0.0944 
     11 C11        31.9376   -0.4449   -3.8303 C.ar      12 UNK        -0.0787 
     12 C12        31.2985    0.7858   -4.0056 C.ar      12 UNK        -0.0862 
     13 C13        30.4537    1.3007   -3.0171 C.ar      12 UNK        -0.0733 
     14 C14        30.2395    0.5549   -1.8516 C.ar      12 UNK        -0.0832 
     15 C15        29.8240    2.6801   -3.2213 C.3       12 UNK         0.0240 
     16 S16        28.1301    2.8886   -2.5551 S.3       12 UNK        -0.2522 
     17 C17        27.2306    1.4134   -3.1444 C.3       12 UNK        -0.0967 
     18 CA         27.2552    1.2059   -4.6791 C.3       5 UNK         0.0660 
     19 N          27.2546   -0.2194   -5.0354 N.am      5 UNK        -0.4015 
     20 C          27.3716   -0.7121   -6.2787 C.2       4 UNK         0.4946 
     21 O          27.4129   -0.0200   -7.2940 O.2       4 UNK        -0.5353 
     22 CA         27.3946   -2.2412   -6.4215 C.3       4 UNK         0.0277 
     23 CB         28.7444   -2.8177   -5.9664 C.3       4 UNK        -0.1981 
     24 N          26.2995   -2.8657   -5.6800 N.am      4 UNK        -0.4209 
     25 C          25.0069   -2.7530   -6.0208 C.2       3 UNK         0.4942 
     26 O          24.6141   -2.2265   -7.0619 O.2       3 UNK        -0.5208 
     27 CA         23.9704   -3.2763   -5.0134 C.3       3 UNK         0.0250 
     28 CB         23.7566   -4.7898   -5.1760 C.3       3 UNK        -0.1990 
     29 N          24.3269   -2.9649   -3.6268 N.am      3 UNK        -0.4232 
     30 C          24.4005   -1.7243   -3.1210 C.2       2 UNK         0.4993 
     31 O          24.1497   -0.7039   -3.7627 O.2       2 UNK        -0.5286 
     32 CA         24.8672   -1.5966   -1.6605 C.3       2 UNK         0.0209 
     33 CB         23.6709   -1.6946   -0.7008 C.3       2 UNK        -0.1931 
     34 N          25.8839   -2.5853   -1.2826 N.am      2 UNK        -0.4546 
     35 C          27.1081   -2.6520   -1.8263 C.2       1 UNK         0.5154 
     36 O          27.4841   -1.8925   -2.7198 O.2       1 UNK        -0.5181 
     37 C          26.1537    2.0313   -5.3738 C.2       5 UNK         0.5014 
     38 O          26.3845    3.1992   -5.6917 O.2       5 UNK        -0.5248 
     39 N          25.0024    1.4057   -5.6602 N.am      6 UNK        -0.4434 
     40 CA         23.9186    1.9633   -6.4768 C.3       6 UNK         0.0363 
     41 CB         22.7494    0.9663   -6.5057 C.3       6 UNK        -0.1936 
     42 C          24.3350    2.3472   -7.9137 C.2       6 UNK         0.5081 
     43 O          23.6631    3.1783   -8.5254 O.2       6 UNK        -0.5248 
     44 N          25.4324    1.7664   -8.4170 N.am      7 UNK        -0.4718 
     45 CA         26.0662    2.0887   -9.6949 C.3       7 UNK         0.0273 
     46 CB         26.0638    0.8250  -10.5745 C.3       7 UNK        -0.1935 
     47 C          27.4808    2.6723   -9.4880 C.2       7 UNK         0.5018 
     48 O          28.3031    2.5994  -10.4029 O.2       7 UNK        -0.5186 
     49 N          27.7330    3.2644   -8.3086 N.am      8 UNK        -0.4240 
     50 CA         28.9813    3.8977   -7.8693 C.3       8 UNK         0.0235 
     51 CB         29.2967    5.1524   -8.7170 C.3       8 UNK        -0.2000 
     52 C          30.1357    2.8830   -7.7684 C.2       8 UNK         0.4941 
     53 O          29.9784    1.8561   -7.1080 O.2       8 UNK        -0.5273 
     54 N          31.2827    3.1681   -8.3990 N.am      9 UNK        -0.4262 
     55 CA         32.4878    2.3301   -8.3958 C.3       9 UNK         0.0264 
     56 CB         33.7070    3.2115   -8.7261 C.3       9 UNK        -0.1955 
     57 C          32.3691    1.1069   -9.3310 C.2       9 UNK         0.5031 
     58 O          33.2645    0.8559  -10.1402 O.2       9 UNK        -0.5390 
     59 N          31.2668    0.3585   -9.2041 N.am      10 UNK        -0.4204 
     60 CA         30.9368   -0.8138  -10.0206 C.3       10 UNK         0.0237 
     61 CB         29.4407   -1.1178   -9.8640 C.3       10 UNK        -0.1985 
     62 C          31.7787   -2.0627   -9.7027 C.2       10 UNK         0.4970 
     63 O          31.7375   -3.0213  -10.4751 O.2       10 UNK        -0.4914 
     64 N          32.5138   -2.0404   -8.5839 N.am      11 UNK        -0.4285 
     65 CA         33.3987   -3.1223   -8.1252 C.3       11 UNK         0.1007 
     66 C          34.6391   -3.3809   -9.0313 C.2       11 UNK         0.5703 
     67 N          35.0208   -2.4653   -9.9152 N.am      11 UNK        -0.7361 
     68 O          35.2641   -4.4338   -8.9290 O.2       11 UNK        -0.4986 
     69 C69        33.8430   -2.9200   -6.6523 C.3       12 UNK        -0.0947 
     70 S70        32.4570   -2.6104   -5.5053 S.3       12 UNK        -0.2240 
     71 C71        32.9115   -0.9616   -4.8802 C.3       12 UNK         0.0194 
     72 H72        26.4194   -7.4684   -1.7832 H         1 UNK         0.0906 
     73 H73        25.3351   -6.9532   -3.0773 H         1 UNK         0.0906 
     74 H74        26.9164   -7.6334   -3.4676 H         1 UNK         0.0906 
     75 H75        27.2628   -5.6868   -0.7478 H         1 UNK         0.3140 
     76 H76        28.0305   -3.7008   -0.2439 H         1 UNK         0.1085 
     77 H77        29.6129   -3.0646   -2.7006 H         1 UNK         0.0836 
     78 H78        29.7871   -4.7099   -2.2403 H         1 UNK         0.0836 
     79 H79        31.1800   -1.1480    0.3829 H         1 UNK         0.0731 
     80 H80        29.5008   -1.2718   -0.0805 H         1 UNK         0.0731 
     81 H81        32.2068   -2.1263   -2.5313 H         1 UNK         0.1312 
     82 H82        31.4764    1.3574   -4.9065 H         1 UNK         0.1406 
     83 H83        29.5938    0.9476   -1.0782 H         1 UNK         0.1631 
     84 H84        29.8123    2.9395   -4.2810 H         1 UNK         0.0717 
     85 H85        30.4676    3.4196   -2.7436 H         1 UNK         0.0717 
     86 H86        27.6802    0.5634   -2.6383 H         1 UNK         0.0934 
     87 H87        26.2069    1.4503   -2.7665 H         1 UNK         0.0934 
     88 H88        28.1996    1.5766   -5.0751 H         1 UNK         0.0739 
     89 H89        27.2511   -0.8749   -4.2559 H         1 UNK         0.3093 
     90 H90        27.2658   -2.4812   -7.4792 H         1 UNK         0.0818 
     91 H91        28.9449   -2.6039   -4.9169 H         1 UNK         0.0819 
     92 H92        28.7807   -3.8990   -6.0986 H         1 UNK         0.0819 
     93 H93        29.5638   -2.3903   -6.5453 H         1 UNK         0.0819 
     94 H94        26.5471   -3.3791   -4.8376 H         1 UNK         0.3041 
     95 H95        23.0232   -2.7765   -5.2280 H         1 UNK         0.0784 
     96 H96        23.4287   -5.0269   -6.1890 H         1 UNK         0.0793 
     97 H97        24.6722   -5.3523   -4.9938 H         1 UNK         0.0793 
     98 H98        22.9911   -5.1600   -4.4939 H         1 UNK         0.0793 
     99 H99        24.5837   -3.7397   -3.0338 H         1 UNK         0.3024 
    100 H100       25.3117   -0.6051   -1.5504 H         1 UNK         0.1171 
    101 H101       22.9094   -0.9543   -0.9509 H         1 UNK         0.0786 
    102 H102       23.9727   -1.5093    0.3303 H         1 UNK         0.0786 
    103 H103       23.1969   -2.6761   -0.7419 H         1 UNK         0.0786 
    104 H104       25.6280   -3.2593   -0.5750 H         1 UNK         0.2977 
    105 H105       24.8575    0.4707   -5.2906 H         1 UNK         0.3127 
    106 H106       23.5786    2.8768   -5.9850 H         1 UNK         0.0770 
    107 H107       23.0382    0.0234   -6.9712 H         1 UNK         0.0814 
    108 H108       21.9075    1.3663   -7.0725 H         1 UNK         0.0814 
    109 H109       22.3884    0.7470   -5.5007 H         1 UNK         0.0814 
    110 H110       25.9499    1.1013   -7.8445 H         1 UNK         0.2983 
    111 H111       25.4991    2.8616  -10.2174 H         1 UNK         0.0947 
    112 H112       26.5727    0.9938  -11.5243 H         1 UNK         0.0806 
    113 H113       25.0453    0.5142  -10.8072 H         1 UNK         0.0806 
    114 H114       26.5554   -0.0099  -10.0757 H         1 UNK         0.0806 
    115 H115       27.0129    3.2195   -7.5941 H         1 UNK         0.3000 
    116 H116       28.7984    4.2338   -6.8475 H         1 UNK         0.0850 
    117 H117       30.1497    5.6995   -8.3134 H         1 UNK         0.0810 
    118 H118       28.4529    5.8426   -8.7170 H         1 UNK         0.0810 
    119 H119       29.5175    4.9070   -9.7564 H         1 UNK         0.0810 
    120 H120       31.3219    4.0094   -8.9562 H         1 UNK         0.3040 
    121 H121       32.6312    1.9395   -7.3860 H         1 UNK         0.0766 
    122 H122       33.8012    4.0397   -8.0235 H         1 UNK         0.0812 
    123 H123       33.6427    3.6286   -9.7319 H         1 UNK         0.0812 
    124 H124       34.6329    2.6373   -8.6697 H         1 UNK         0.0812 
    125 H125       30.5871    0.6464   -8.5028 H         1 UNK         0.3205 
    126 H126       31.1232   -0.5583  -11.0658 H         1 UNK         0.0754 
    127 H127       29.1331   -1.9412  -10.5099 H         1 UNK         0.0769 
    128 H128       28.8403   -0.2502  -10.1337 H         1 UNK         0.0769 
    129 H129       29.1923   -1.3928   -8.8394 H         1 UNK         0.0769 
    130 H130       32.4760   -1.2203   -8.0003 H         1 UNK         0.2981 
    131 H131       32.8075   -4.0393   -8.1605 H         1 UNK         0.0541 
    132 H132       34.5143   -1.5976  -10.0066 H         1 UNK         0.3459 
    133 H133       35.8233   -2.6456  -10.4973 H         1 UNK         0.3459 
    134 H134       34.3697   -3.8062   -6.2934 H         1 UNK         0.0612 
    135 H135       34.5592   -2.0989   -6.5856 H         1 UNK         0.0612 
    136 H136       33.9080   -1.0080   -4.4389 H         1 UNK         0.0624 
    137 H137       32.9732   -0.2709   -5.7225 H         1 UNK         0.0624 
@<TRIPOS>BOND
     1    1    2 1    
     2    1   72 1    
     3    1   73 1    
     4    1   74 1    
     5    2    3 2    
     6    2    4 am   BACKBONE|DICT|INTERRES
     7    4    5 1    
     8    4   75 1    
     9    5    6 1    
    10    5   35 1    
    11    5   76 1    
    12    6    7 1    
    13    6   77 1    
    14    6   78 1    
    15    7    8 1    
    16    8    9 1    
    17    8   79 1    
    18    8   80 1    
    19    9   10 ar   
    20    9   14 ar   
    21   10   11 ar   
    22   10   81 1    
    23   11   12 ar   
    24   11   71 1    
    25   12   13 ar   
    26   12   82 1    
    27   13   14 ar   
    28   13   15 1    
    29   14   83 1    
    30   15   16 1    
    31   15   84 1    
    32   15   85 1    
    33   16   17 1    
    34   17   18 1    
    35   17   86 1    
    36   17   87 1    
    37   18   19 1    
    38   18   37 1    
    39   18   88 1    
    40   19   20 am   BACKBONE|DICT|INTERRES
    41   19   89 1    
    42   20   21 2    
    43   20   22 1    
    44   22   23 1    
    45   22   24 1    
    46   22   90 1    
    47   23   91 1    
    48   23   92 1    
    49   23   93 1    
    50   24   25 am   BACKBONE|DICT|INTERRES
    51   24   94 1    
    52   25   26 2    
    53   25   27 1    
    54   27   28 1    
    55   27   29 1    
    56   27   95 1    
    57   28   96 1    
    58   28   97 1    
    59   28   98 1    
    60   29   30 am   BACKBONE|DICT|INTERRES
    61   29   99 1    
    62   30   31 2    
    63   30   32 1    
    64   32   33 1    
    65   32   34 1    
    66   32  100 1    
    67   33  101 1    
    68   33  102 1    
    69   33  103 1    
    70   34   35 am   BACKBONE|DICT|INTERRES
    71   34  104 1    
    72   35   36 2    
    73   37   38 2    
    74   37   39 am   BACKBONE|DICT|INTERRES
    75   39   40 1    
    76   39  105 1    
    77   40   41 1    
    78   40   42 1    
    79   40  106 1    
    80   41  107 1    
    81   41  108 1    
    82   41  109 1    
    83   42   43 2    
    84   42   44 am   BACKBONE|DICT|INTERRES
    85   44   45 1    
    86   44  110 1    
    87   45   46 1    
    88   45   47 1    
    89   45  111 1    
    90   46  112 1    
    91   46  113 1    
    92   46  114 1    
    93   47   48 2    
    94   47   49 am   BACKBONE|DICT|INTERRES
    95   49   50 1    
    96   49  115 1    
    97   50   51 1    
    98   50   52 1    
    99   50  116 1    
   100   51  117 1    
   101   51  118 1    
   102   51  119 1    
   103   52   53 2    
   104   52   54 am   BACKBONE|DICT|INTERRES
   105   54   55 1    
   106   54  120 1    
   107   55   56 1    
   108   55   57 1    
   109   55  121 1    
   110   56  122 1    
   111   56  123 1    
   112   56  124 1    
   113   57   58 2    
   114   57   59 am   BACKBONE|DICT|INTERRES
   115   59   60 1    
   116   59  125 1    
   117   60   61 1    
   118   60   62 1    
   119   60  126 1    
   120   61  127 1    
   121   61  128 1    
   122   61  129 1    
   123   62   63 2    
   124   62   64 am   BACKBONE|DICT|INTERRES
   125   64   65 1    
   126   64  130 1    
   127   65   66 1    
   128   65   69 1    
   129   65  131 1    
   130   66   67 am   BACKBONE|DICT|INTERRES
   131   66   68 2    
   132   67  132 1    
   133   67  133 1    
   134   69   70 1    
   135   69  134 1    
   136   69  135 1    
   137   70   71 1    
   138   71  136 1    
   139   71  137 1    
@<TRIPOS>SUBSTRUCTURE
     1 UNK         1 GROUP             0       ****    0 ROOT    
