@<TRIPOS>MOLECULE
3R137
137   139    1
SMALL
USER_CHARGES


@<TRIPOS>ATOM
      1 CA         25.6446   -6.2131   -5.8080 C.3       0 UNK        -0.2020 
      2 C          25.7382   -5.6444   -4.4006 C.2       0 UNK         0.4855 
      3 O          24.7201   -5.2589   -3.8254 O.2       0 UNK        -0.5197 
      4 N          26.9571   -5.5773   -3.8495 N.am      1 UNK        -0.4892 
      5 CA         27.2809   -5.0438   -2.5210 C.3       1 UNK         0.0835 
      6 C6         28.7829   -5.2558   -2.2165 C.3       12 UNK        -0.0855 
      7 S7         29.2301   -4.9101   -0.4815 S.3       12 UNK        -0.2931 
      8 C8         30.9210   -4.2550   -0.6693 C.3       12 UNK         0.0378 
      9 C9         30.9389   -2.8879   -1.3398 C.ar      12 UNK        -0.0802 
     10 C10        31.3569   -2.7535   -2.6683 C.ar      12 UNK        -0.0944 
     11 C11        31.3686   -1.4978   -3.2804 C.ar      12 UNK        -0.0787 
     12 C12        30.9957   -0.3705   -2.5465 C.ar      12 UNK        -0.0862 
     13 C13        30.5391   -0.4929   -1.2304 C.ar      12 UNK        -0.0733 
     14 C14        30.5275   -1.7558   -0.6297 C.ar      12 UNK        -0.0832 
     15 C15        30.0287    0.7174   -0.4499 C.3       12 UNK         0.0240 
     16 S16        29.0706    1.9210   -1.4431 S.3       12 UNK        -0.2522 
     17 C17        27.8760    0.8673   -2.3385 C.3       12 UNK        -0.0967 
     18 CA         28.0597    0.9746   -3.8785 C.3       5 UNK         0.0660 
     19 N          27.8004   -0.2962   -4.5618 N.am      5 UNK        -0.4015 
     20 C          27.9948   -0.5283   -5.8688 C.2       4 UNK         0.4946 
     21 O          28.5182    0.2731   -6.6413 O.2       4 UNK        -0.5353 
     22 CA         27.4588   -1.8565   -6.4249 C.3       4 UNK         0.0277 
     23 CB         28.4876   -2.9876   -6.2614 C.3       4 UNK        -0.1981 
     24 N          26.1818   -2.2194   -5.8050 N.am      4 UNK        -0.4209 
     25 C          25.0294   -1.5746   -6.0480 C.2       3 UNK         0.4942 
     26 O          24.9153   -0.6791   -6.8838 O.2       3 UNK        -0.5208 
     27 CA         23.8132   -1.9452   -5.1827 C.3       3 UNK         0.0250 
     28 CB         22.9986   -3.0742   -5.8320 C.3       3 UNK        -0.1990 
     29 N          24.1908   -2.3129   -3.8153 N.am      3 UNK        -0.4232 
     30 C          24.6422   -1.4302   -2.9102 C.2       2 UNK         0.4993 
     31 O          24.7324   -0.2221   -3.1279 O.2       2 UNK        -0.5286 
     32 CA         25.1339   -1.9839   -1.5602 C.3       2 UNK         0.0209 
     33 CB         23.9768   -2.0496   -0.5516 C.3       2 UNK        -0.1931 
     34 N          25.7705   -3.3010   -1.6639 N.am      2 UNK        -0.4546 
     35 C          26.8529   -3.5643   -2.4094 C.2       1 UNK         0.5154 
     36 O          27.4512   -2.7043   -3.0581 O.2       1 UNK        -0.5181 
     37 C          27.2286    2.1314   -4.4707 C.2       5 UNK         0.5014 
     38 O          27.7826    3.1961   -4.7475 O.2       5 UNK        -0.5248 
     39 N          25.9255    1.8898   -4.6812 N.am      6 UNK        -0.4434 
     40 CA         24.9945    2.8259   -5.3158 C.3       6 UNK         0.0363 
     41 CB         23.5589    2.2916   -5.1920 C.3       6 UNK        -0.1936 
     42 C          25.3412    3.1219   -6.7858 C.2       6 UNK         0.5081 
     43 O          25.2532    4.2778   -7.2014 O.2       6 UNK        -0.5248 
     44 N          25.7344    2.0865   -7.5426 N.am      7 UNK        -0.4718 
     45 CA         26.1858    2.2044   -8.9327 C.3       7 UNK         0.0273 
     46 CB         26.2611    0.8081   -9.5706 C.3       7 UNK        -0.1935 
     47 C          27.5369    2.9266   -9.0695 C.2       7 UNK         0.5018 
     48 O          27.7335    3.6537  -10.0444 O.2       7 UNK        -0.5186 
     49 N          28.4443    2.6949   -8.1092 N.am      8 UNK        -0.4240 
     50 CA         29.8054    3.2279   -7.9603 C.3       8 UNK         0.0235 
     51 CB         29.8130    4.7651   -7.8603 C.3       8 UNK        -0.2000 
     52 C          30.7910    2.7235   -9.0266 C.2       8 UNK         0.4941 
     53 O          31.8527    2.2114   -8.6737 O.2       8 UNK        -0.5273 
     54 N          30.4128    2.8218  -10.3075 N.am      9 UNK        -0.4262 
     55 CA         31.1752    2.3403  -11.4658 C.3       9 UNK         0.0264 
     56 CB         30.4852    2.8214  -12.7524 C.3       9 UNK        -0.1955 
     57 C          31.3674    0.8113  -11.4961 C.2       9 UNK         0.5031 
     58 O          32.2831    0.3305  -12.1641 O.2       9 UNK        -0.5390 
     59 N          30.5116    0.0803  -10.7696 N.am      10 UNK        -0.4204 
     60 CA         30.5878   -1.3666  -10.5712 C.3       10 UNK         0.0237 
     61 CB         29.2254   -1.8598  -10.0566 C.3       10 UNK        -0.1985 
     62 C          31.7068   -1.8009   -9.6043 C.2       10 UNK         0.4970 
     63 O          32.0642   -2.9797   -9.6114 O.2       10 UNK        -0.4914 
     64 N          32.2126   -0.8784   -8.7729 N.am      11 UNK        -0.4285 
     65 CA         33.2616   -1.1424   -7.7785 C.3       11 UNK         0.1007 
     66 C          34.6715   -1.3474   -8.4007 C.2       11 UNK         0.5703 
     67 N          35.5955   -1.9319   -7.6502 N.am      11 UNK        -0.7361 
     68 O          34.9470   -0.9627   -9.5358 O.2       11 UNK        -0.4986 
     69 C69        33.2562   -0.0561   -6.6657 C.3       12 UNK        -0.0947 
     70 S70        33.4193   -0.7598   -4.9931 S.3       12 UNK        -0.2240 
     71 C71        31.7175   -1.3511   -4.7505 C.3       12 UNK         0.0194 
     72 H72        25.5023   -5.4108   -6.5312 H         1 UNK         0.0906 
     73 H73        26.5439   -6.7639   -6.0832 H         1 UNK         0.0906 
     74 H74        24.7977   -6.8949   -5.8827 H         1 UNK         0.0906 
     75 H75        27.7496   -5.8999   -4.3863 H         1 UNK         0.3140 
     76 H76        26.7074   -5.6248   -1.7955 H         1 UNK         0.1085 
     77 H77        29.0579   -6.2933   -2.4136 H         1 UNK         0.0836 
     78 H78        29.3899   -4.6551   -2.8942 H         1 UNK         0.0836 
     79 H79        31.5260   -4.9705   -1.2288 H         1 UNK         0.0731 
     80 H80        31.3797   -4.1764    0.3174 H         1 UNK         0.0731 
     81 H81        31.6536   -3.6272   -3.2320 H         1 UNK         0.1312 
     82 H82        31.0240    0.6004   -3.0197 H         1 UNK         0.1406 
     83 H83        30.1828   -1.8659    0.3897 H         1 UNK         0.1631 
     84 H84        30.8808    1.2312   -0.0034 H         1 UNK         0.0717 
     85 H85        29.3967    0.3908    0.3775 H         1 UNK         0.0717 
     86 H86        28.0056   -0.1650   -2.0114 H         1 UNK         0.0934 
     87 H87        26.8645    1.1350   -2.0265 H         1 UNK         0.0934 
     88 H88        29.1037    1.2052   -4.0959 H         1 UNK         0.0739 
     89 H89        27.4600   -1.0635   -3.9879 H         1 UNK         0.3093 
     90 H90        27.2794   -1.7218   -7.4929 H         1 UNK         0.0818 
     91 H91        28.7604   -3.1521   -5.2193 H         1 UNK         0.0819 
     92 H92        28.1115   -3.9278   -6.6643 H         1 UNK         0.0819 
     93 H93        29.4068   -2.7511   -6.7992 H         1 UNK         0.0819 
     94 H94        26.2156   -2.8892   -5.0498 H         1 UNK         0.3041 
     95 H95        23.1705   -1.0640   -5.1271 H         1 UNK         0.0784 
     96 H96        22.6605   -2.7846   -6.8279 H         1 UNK         0.0793 
     97 H97        23.5802   -3.9885   -5.9411 H         1 UNK         0.0793 
     98 H98        22.1109   -3.3105   -5.2450 H         1 UNK         0.0793 
     99 H99        24.1872   -3.3026   -3.5853 H         1 UNK         0.3024 
    100 H100       25.8818   -1.2863   -1.1776 H         1 UNK         0.1171 
    101 H101       24.3275   -2.3487    0.4364 H         1 UNK         0.0786 
    102 H102       23.4995   -1.0745   -0.4421 H         1 UNK         0.0786 
    103 H103       23.2069   -2.7563   -0.8642 H         1 UNK         0.0786 
    104 H104       25.3054   -4.0662   -1.1963 H         1 UNK         0.2977 
    105 H105       25.5322    1.0154   -4.3401 H         1 UNK         0.3127 
    106 H106       25.0534    3.7682   -4.7670 H         1 UNK         0.0770 
    107 H107       23.4318    1.3485   -5.7236 H         1 UNK         0.0814 
    108 H108       22.8427    3.0000   -5.6102 H         1 UNK         0.0814 
    109 H109       23.2838    2.1282   -4.1498 H         1 UNK         0.0814 
    110 H110       25.6984    1.1505   -7.1493 H         1 UNK         0.2983 
    111 H111       25.4440    2.7903   -9.4798 H         1 UNK         0.0947 
    112 H112       26.5778    0.8685  -10.6127 H         1 UNK         0.0806 
    113 H113       25.2897    0.3133   -9.5551 H         1 UNK         0.0806 
    114 H114       26.9697    0.1652   -9.0488 H         1 UNK         0.0806 
    115 H115       28.2059    1.9875   -7.4172 H         1 UNK         0.3000 
    116 H116       30.1583    2.8393   -7.0031 H         1 UNK         0.0850 
    117 H117       30.8174    5.1350   -7.6504 H         1 UNK         0.0810 
    118 H118       29.1654    5.1081   -7.0529 H         1 UNK         0.0810 
    119 H119       29.4790    5.2407   -8.7827 H         1 UNK         0.0810 
    120 H120       29.5018    3.2398  -10.4871 H         1 UNK         0.3040 
    121 H121       32.1692    2.7898  -11.4180 H         1 UNK         0.0766 
    122 H122       30.4229    3.9092  -12.7864 H         1 UNK         0.0812 
    123 H123       29.4730    2.4243  -12.8398 H         1 UNK         0.0812 
    124 H124       31.0391    2.5024  -13.6366 H         1 UNK         0.0812 
    125 H125       29.7901    0.5710  -10.2631 H         1 UNK         0.3205 
    126 H126       30.7854   -1.8383  -11.5362 H         1 UNK         0.0754 
    127 H127       29.2259   -2.9416   -9.9147 H         1 UNK         0.0769 
    128 H128       28.4247   -1.6266  -10.7589 H         1 UNK         0.0769 
    129 H129       28.9771   -1.4050   -9.0978 H         1 UNK         0.0769 
    130 H130       31.9223    0.0880   -8.8596 H         1 UNK         0.2981 
    131 H131       32.9951   -2.0999   -7.3266 H         1 UNK         0.0541 
    132 H132       35.3872   -2.2215   -6.7070 H         1 UNK         0.3459 
    133 H133       36.5211   -2.0675   -8.0256 H         1 UNK         0.3459 
    134 H134       32.3302    0.5203   -6.6820 H         1 UNK         0.0612 
    135 H135       34.0465    0.6819   -6.8165 H         1 UNK         0.0612 
    136 H136       31.5893   -2.3006   -5.2722 H         1 UNK         0.0624 
    137 H137       31.0125   -0.6559   -5.2085 H         1 UNK         0.0624 
@<TRIPOS>BOND
     1    1    2 1    
     2    1   72 1    
     3    1   73 1    
     4    1   74 1    
     5    2    3 2    
     6    2    4 am   BACKBONE|DICT|INTERRES
     7    4    5 1    
     8    4   75 1    
     9    5    6 1    
    10    5   35 1    
    11    5   76 1    
    12    6    7 1    
    13    6   77 1    
    14    6   78 1    
    15    7    8 1    
    16    8    9 1    
    17    8   79 1    
    18    8   80 1    
    19    9   10 ar   
    20    9   14 ar   
    21   10   11 ar   
    22   10   81 1    
    23   11   12 ar   
    24   11   71 1    
    25   12   13 ar   
    26   12   82 1    
    27   13   14 ar   
    28   13   15 1    
    29   14   83 1    
    30   15   16 1    
    31   15   84 1    
    32   15   85 1    
    33   16   17 1    
    34   17   18 1    
    35   17   86 1    
    36   17   87 1    
    37   18   19 1    
    38   18   37 1    
    39   18   88 1    
    40   19   20 am   BACKBONE|DICT|INTERRES
    41   19   89 1    
    42   20   21 2    
    43   20   22 1    
    44   22   23 1    
    45   22   24 1    
    46   22   90 1    
    47   23   91 1    
    48   23   92 1    
    49   23   93 1    
    50   24   25 am   BACKBONE|DICT|INTERRES
    51   24   94 1    
    52   25   26 2    
    53   25   27 1    
    54   27   28 1    
    55   27   29 1    
    56   27   95 1    
    57   28   96 1    
    58   28   97 1    
    59   28   98 1    
    60   29   30 am   BACKBONE|DICT|INTERRES
    61   29   99 1    
    62   30   31 2    
    63   30   32 1    
    64   32   33 1    
    65   32   34 1    
    66   32  100 1    
    67   33  101 1    
    68   33  102 1    
    69   33  103 1    
    70   34   35 am   BACKBONE|DICT|INTERRES
    71   34  104 1    
    72   35   36 2    
    73   37   38 2    
    74   37   39 am   BACKBONE|DICT|INTERRES
    75   39   40 1    
    76   39  105 1    
    77   40   41 1    
    78   40   42 1    
    79   40  106 1    
    80   41  107 1    
    81   41  108 1    
    82   41  109 1    
    83   42   43 2    
    84   42   44 am   BACKBONE|DICT|INTERRES
    85   44   45 1    
    86   44  110 1    
    87   45   46 1    
    88   45   47 1    
    89   45  111 1    
    90   46  112 1    
    91   46  113 1    
    92   46  114 1    
    93   47   48 2    
    94   47   49 am   BACKBONE|DICT|INTERRES
    95   49   50 1    
    96   49  115 1    
    97   50   51 1    
    98   50   52 1    
    99   50  116 1    
   100   51  117 1    
   101   51  118 1    
   102   51  119 1    
   103   52   53 2    
   104   52   54 am   BACKBONE|DICT|INTERRES
   105   54   55 1    
   106   54  120 1    
   107   55   56 1    
   108   55   57 1    
   109   55  121 1    
   110   56  122 1    
   111   56  123 1    
   112   56  124 1    
   113   57   58 2    
   114   57   59 am   BACKBONE|DICT|INTERRES
   115   59   60 1    
   116   59  125 1    
   117   60   61 1    
   118   60   62 1    
   119   60  126 1    
   120   61  127 1    
   121   61  128 1    
   122   61  129 1    
   123   62   63 2    
   124   62   64 am   BACKBONE|DICT|INTERRES
   125   64   65 1    
   126   64  130 1    
   127   65   66 1    
   128   65   69 1    
   129   65  131 1    
   130   66   67 am   BACKBONE|DICT|INTERRES
   131   66   68 2    
   132   67  132 1    
   133   67  133 1    
   134   69   70 1    
   135   69  134 1    
   136   69  135 1    
   137   70   71 1    
   138   71  136 1    
   139   71  137 1    
@<TRIPOS>SUBSTRUCTURE
     1 UNK         1 GROUP             0       ****    0 ROOT    
