@<TRIPOS>MOLECULE
3R137
137   139    1
SMALL
USER_CHARGES


@<TRIPOS>ATOM
      1 CA         29.1082   -5.7558   -6.2843 C.3       0 UNK        -0.2020 
      2 C          28.1593   -4.9242   -5.4361 C.2       0 UNK         0.4855 
      3 O          27.7861   -3.8266   -5.8403 O.2       0 UNK        -0.5197 
      4 N          27.7497   -5.4437   -4.2710 N.am      1 UNK        -0.4892 
      5 CA         26.9067   -4.8078   -3.2402 C.3       1 UNK         0.0835 
      6 C6         27.5491   -3.5400   -2.6133 C.3       12 UNK        -0.0855 
      7 S7         29.0004   -3.9793   -1.5936 S.3       12 UNK        -0.2931 
      8 C8         30.3963   -3.4552   -2.6499 C.3       12 UNK         0.0378 
      9 C9         30.7961   -1.9795   -2.5601 C.ar      12 UNK        -0.0802 
     10 C10        32.0036   -1.5891   -3.1455 C.ar      12 UNK        -0.0944 
     11 C11        32.4359   -0.2621   -3.0888 C.ar      12 UNK        -0.0787 
     12 C12        31.6431    0.6891   -2.4402 C.ar      12 UNK        -0.0862 
     13 C13        30.4233    0.3286   -1.8574 C.ar      12 UNK        -0.0733 
     14 C14        30.0151   -1.0114   -1.9155 C.ar      12 UNK        -0.0832 
     15 C15        29.6041    1.4020   -1.1349 C.3       12 UNK         0.0240 
     16 S16        27.8324    1.0109   -0.9026 S.3       12 UNK        -0.2522 
     17 C17        27.0498    1.6389   -2.4247 C.3       12 UNK        -0.0967 
     18 CA         27.0372    0.6038   -3.5951 C.3       5 UNK         0.0660 
     19 N          25.7435    0.5611   -4.2807 N.am      5 UNK        -0.4015 
     20 C          25.1940    1.5357   -5.0205 C.2       4 UNK         0.4946 
     21 O          25.7715    2.5892   -5.2952 O.2       4 UNK        -0.5353 
     22 CA         23.7572    1.3136   -5.5360 C.3       4 UNK         0.0277 
     23 CB         23.6840    1.4119   -7.0688 C.3       4 UNK        -0.1981 
     24 N          23.1585    0.0459   -5.1000 N.am      4 UNK        -0.4209 
     25 C          22.6387   -0.1813   -3.8874 C.2       3 UNK         0.4942 
     26 O          22.6396    0.6550   -2.9840 O.2       3 UNK        -0.5208 
     27 CA         22.0238   -1.5663   -3.6169 C.3       3 UNK         0.0250 
     28 CB         20.5684   -1.6242   -4.1207 C.3       3 UNK        -0.1990 
     29 N          22.7998   -2.7193   -4.1006 N.am      3 UNK        -0.4232 
     30 C          23.0813   -3.0946   -5.3557 C.2       2 UNK         0.4993 
     31 O          22.8191   -2.4161   -6.3506 O.2       2 UNK        -0.5286 
     32 CA         23.7730   -4.4624   -5.5113 C.3       2 UNK         0.0209 
     33 CB         23.8231   -4.9434   -6.9736 C.3       2 UNK        -0.1931 
     34 N          25.1266   -4.4875   -4.9481 N.am      2 UNK        -0.4546 
     35 C          25.4309   -4.5768   -3.6470 C.2       1 UNK         0.5154 
     36 O          24.5731   -4.5332   -2.7625 O.2       1 UNK        -0.5181 
     37 C          28.1759    0.7439   -4.6280 C.2       5 UNK         0.5014 
     38 O          28.3190   -0.1368   -5.4787 O.2       5 UNK        -0.5248 
     39 N          28.9326    1.8485   -4.5838 N.am      6 UNK        -0.4434 
     40 CA         30.0460    2.1371   -5.4866 C.3       6 UNK         0.0363 
     41 CB         30.7496    3.4285   -5.0420 C.3       6 UNK        -0.1936 
     42 C          29.6477    2.2261   -6.9671 C.2       6 UNK         0.5081 
     43 O          30.4501    1.8596   -7.8248 O.2       6 UNK        -0.5248 
     44 N          28.4146    2.6724   -7.2444 N.am      7 UNK        -0.4718 
     45 CA         27.8583    2.7410   -8.5972 C.3       7 UNK         0.0273 
     46 CB         26.6643    3.7070   -8.6093 C.3       7 UNK        -0.1935 
     47 C          27.4647    1.3634   -9.1605 C.2       7 UNK         0.5018 
     48 O          27.4169    1.2154  -10.3818 O.2       7 UNK        -0.5186 
     49 N          27.2093    0.3831   -8.2814 N.am      8 UNK        -0.4240 
     50 CA         26.9931   -1.0146   -8.6582 C.3       8 UNK         0.0235 
     51 CB         26.0858   -1.7139   -7.6327 C.3       8 UNK        -0.2000 
     52 C          28.3302   -1.7552   -8.7985 C.2       8 UNK         0.4941 
     53 O          28.5232   -2.4745   -9.7795 O.2       8 UNK        -0.5273 
     54 N          29.2302   -1.5537   -7.8259 N.am      9 UNK        -0.4262 
     55 CA         30.5545   -2.1756   -7.7757 C.3       9 UNK         0.0264 
     56 CB         31.1434   -1.9690   -6.3745 C.3       9 UNK        -0.1955 
     57 C          31.5314   -1.6620   -8.8479 C.2       9 UNK         0.5031 
     58 O          32.4367   -2.4045   -9.2303 O.2       9 UNK        -0.5390 
     59 N          31.3438   -0.4102   -9.2937 N.am      10 UNK        -0.4204 
     60 CA         32.1704    0.3354  -10.2516 C.3       10 UNK         0.0237 
     61 CB         32.1701   -0.3377  -11.6412 C.3       10 UNK        -0.1985 
     62 C          33.5867    0.6373   -9.7204 C.2       10 UNK         0.4970 
     63 O          34.5282    0.7462  -10.5080 O.2       10 UNK        -0.4914 
     64 N          33.7083    0.7813   -8.3949 N.am      11 UNK        -0.4285 
     65 CA         34.9486    1.1317   -7.6855 C.3       11 UNK         0.1007 
     66 C          35.3079    2.6465   -7.7210 C.2       11 UNK         0.5703 
     67 N          34.4320    3.5291   -8.1888 N.am      11 UNK        -0.7361 
     68 O          36.4108    3.0249   -7.3330 O.2       11 UNK        -0.4986 
     69 C69        34.9594    0.5553   -6.2434 C.3       12 UNK        -0.0947 
     70 S70        33.5161    1.0664   -5.2546 S.3       12 UNK        -0.2240 
     71 C71        33.7661    0.1335   -3.7158 C.3       12 UNK         0.0194 
     72 H72        28.7146   -5.8586   -7.2952 H         1 UNK         0.0906 
     73 H73        30.0789   -5.2649   -6.3453 H         1 UNK         0.0906 
     74 H74        29.2558   -6.7543   -5.8734 H         1 UNK         0.0906 
     75 H75        28.0702   -6.3703   -4.0242 H         1 UNK         0.3140 
     76 H76        26.8374   -5.5537   -2.4460 H         1 UNK         0.1085 
     77 H77        26.8424   -3.0311   -1.9545 H         1 UNK         0.0836 
     78 H78        27.8247   -2.8121   -3.3785 H         1 UNK         0.0836 
     79 H79        31.2584   -4.0618   -2.3686 H         1 UNK         0.0731 
     80 H80        30.1766   -3.7058   -3.6869 H         1 UNK         0.0731 
     81 H81        32.6157   -2.3272   -3.6458 H         1 UNK         0.1312 
     82 H82        31.9822    1.7146   -2.3898 H         1 UNK         0.1406 
     83 H83        29.0885   -1.3028   -1.4468 H         1 UNK         0.1631 
     84 H84        29.6958    2.3589   -1.6506 H         1 UNK         0.0717 
     85 H85        30.0456    1.5461   -0.1480 H         1 UNK         0.0717 
     86 H86        26.0209    1.8521   -2.1288 H         1 UNK         0.0934 
     87 H87        27.4448    2.6193   -2.6905 H         1 UNK         0.0934 
     88 H88        27.1545   -0.3935   -3.1693 H         1 UNK         0.0739 
     89 H89        25.2036   -0.2801   -4.1470 H         1 UNK         0.3093 
     90 H90        23.1508    2.1250   -5.1278 H         1 UNK         0.0818 
     91 H91        22.6945    1.1461   -7.4410 H         1 UNK         0.0819 
     92 H92        23.8810    2.4318   -7.3973 H         1 UNK         0.0819 
     93 H93        24.4120    0.7673   -7.5575 H         1 UNK         0.0819 
     94 H94        23.1035   -0.7135   -5.7783 H         1 UNK         0.3041 
     95 H95        21.9930   -1.6788   -2.5318 H         1 UNK         0.0784 
     96 H96        19.9736   -0.8189   -3.6871 H         1 UNK         0.0793 
     97 H97        20.5067   -1.5237   -5.2048 H         1 UNK         0.0793 
     98 H98        20.0903   -2.5638   -3.8437 H         1 UNK         0.0793 
     99 H99        23.1611   -3.3293   -3.3710 H         1 UNK         0.3024 
    100 H100       23.1629   -5.1831   -4.9614 H         1 UNK         0.1171 
    101 H101       24.2550   -5.9415   -7.0487 H         1 UNK         0.0786 
    102 H102       24.4081   -4.2770   -7.6050 H         1 UNK         0.0786 
    103 H103       22.8204   -4.9934   -7.4002 H         1 UNK         0.0786 
    104 H104       25.9062   -4.4234   -5.5950 H         1 UNK         0.2977 
    105 H105       28.7273    2.5464   -3.8860 H         1 UNK         0.3127 
    106 H106       30.7428    1.3055   -5.3925 H         1 UNK         0.0770 
    107 H107       30.0822    4.2899   -5.0882 H         1 UNK         0.0814 
    108 H108       31.6055    3.6441   -5.6836 H         1 UNK         0.0814 
    109 H109       31.1269    3.3473   -4.0232 H         1 UNK         0.0814 
    110 H110       27.7976    2.9200   -6.4800 H         1 UNK         0.2983 
    111 H111       28.6240    3.1482   -9.2619 H         1 UNK         0.0947 
    112 H112       26.2080    3.7570   -9.5990 H         1 UNK         0.0806 
    113 H113       26.9726    4.7183   -8.3440 H         1 UNK         0.0806 
    114 H114       25.8917    3.4006   -7.9064 H         1 UNK         0.0806 
    115 H115       27.3359    0.5724   -7.2950 H         1 UNK         0.3000 
    116 H116       26.4906   -1.0588   -9.6271 H         1 UNK         0.0850 
    117 H117       26.0955   -2.7918   -7.7907 H         1 UNK         0.0810 
    118 H118       25.0504   -1.3908   -7.7235 H         1 UNK         0.0810 
    119 H119       26.4079   -1.5414   -6.6061 H         1 UNK         0.0810 
    120 H120       28.9496   -1.0104   -7.0115 H         1 UNK         0.3040 
    121 H121       30.4232   -3.2475   -7.9364 H         1 UNK         0.0766 
    122 H122       32.1060   -2.4714   -6.2724 H         1 UNK         0.0812 
    123 H123       30.4782   -2.3710   -5.6113 H         1 UNK         0.0812 
    124 H124       31.2984   -0.9131   -6.1535 H         1 UNK         0.0812 
    125 H125       30.6280    0.1479   -8.8374 H         1 UNK         0.3205 
    126 H126       31.6855    1.3063  -10.3631 H         1 UNK         0.0754 
    127 H127       32.6442    0.3028  -12.3859 H         1 UNK         0.0769 
    128 H128       31.1545   -0.5353  -11.9846 H         1 UNK         0.0769 
    129 H129       32.7127   -1.2833  -11.6353 H         1 UNK         0.0769 
    130 H130       32.8796    0.7180   -7.8211 H         1 UNK         0.2981 
    131 H131       35.7677    0.6401   -8.2138 H         1 UNK         0.0541 
    132 H132       33.5226    3.2294   -8.5005 H         1 UNK         0.3459 
    133 H133       34.6803    4.5053   -8.2131 H         1 UNK         0.3459 
    134 H134       35.8726    0.8331   -5.7140 H         1 UNK         0.0612 
    135 H135       34.9624   -0.5346   -6.2948 H         1 UNK         0.0612 
    136 H136       34.3670   -0.7547   -3.9169 H         1 UNK         0.0624 
    137 H137       34.3409    0.7426   -3.0169 H         1 UNK         0.0624 
@<TRIPOS>BOND
     1    1    2 1    
     2    1   72 1    
     3    1   73 1    
     4    1   74 1    
     5    2    3 2    
     6    2    4 am   BACKBONE|DICT|INTERRES
     7    4    5 1    
     8    4   75 1    
     9    5    6 1    
    10    5   35 1    
    11    5   76 1    
    12    6    7 1    
    13    6   77 1    
    14    6   78 1    
    15    7    8 1    
    16    8    9 1    
    17    8   79 1    
    18    8   80 1    
    19    9   10 ar   
    20    9   14 ar   
    21   10   11 ar   
    22   10   81 1    
    23   11   12 ar   
    24   11   71 1    
    25   12   13 ar   
    26   12   82 1    
    27   13   14 ar   
    28   13   15 1    
    29   14   83 1    
    30   15   16 1    
    31   15   84 1    
    32   15   85 1    
    33   16   17 1    
    34   17   18 1    
    35   17   86 1    
    36   17   87 1    
    37   18   19 1    
    38   18   37 1    
    39   18   88 1    
    40   19   20 am   BACKBONE|DICT|INTERRES
    41   19   89 1    
    42   20   21 2    
    43   20   22 1    
    44   22   23 1    
    45   22   24 1    
    46   22   90 1    
    47   23   91 1    
    48   23   92 1    
    49   23   93 1    
    50   24   25 am   BACKBONE|DICT|INTERRES
    51   24   94 1    
    52   25   26 2    
    53   25   27 1    
    54   27   28 1    
    55   27   29 1    
    56   27   95 1    
    57   28   96 1    
    58   28   97 1    
    59   28   98 1    
    60   29   30 am   BACKBONE|DICT|INTERRES
    61   29   99 1    
    62   30   31 2    
    63   30   32 1    
    64   32   33 1    
    65   32   34 1    
    66   32  100 1    
    67   33  101 1    
    68   33  102 1    
    69   33  103 1    
    70   34   35 am   BACKBONE|DICT|INTERRES
    71   34  104 1    
    72   35   36 2    
    73   37   38 2    
    74   37   39 am   BACKBONE|DICT|INTERRES
    75   39   40 1    
    76   39  105 1    
    77   40   41 1    
    78   40   42 1    
    79   40  106 1    
    80   41  107 1    
    81   41  108 1    
    82   41  109 1    
    83   42   43 2    
    84   42   44 am   BACKBONE|DICT|INTERRES
    85   44   45 1    
    86   44  110 1    
    87   45   46 1    
    88   45   47 1    
    89   45  111 1    
    90   46  112 1    
    91   46  113 1    
    92   46  114 1    
    93   47   48 2    
    94   47   49 am   BACKBONE|DICT|INTERRES
    95   49   50 1    
    96   49  115 1    
    97   50   51 1    
    98   50   52 1    
    99   50  116 1    
   100   51  117 1    
   101   51  118 1    
   102   51  119 1    
   103   52   53 2    
   104   52   54 am   BACKBONE|DICT|INTERRES
   105   54   55 1    
   106   54  120 1    
   107   55   56 1    
   108   55   57 1    
   109   55  121 1    
   110   56  122 1    
   111   56  123 1    
   112   56  124 1    
   113   57   58 2    
   114   57   59 am   BACKBONE|DICT|INTERRES
   115   59   60 1    
   116   59  125 1    
   117   60   61 1    
   118   60   62 1    
   119   60  126 1    
   120   61  127 1    
   121   61  128 1    
   122   61  129 1    
   123   62   63 2    
   124   62   64 am   BACKBONE|DICT|INTERRES
   125   64   65 1    
   126   64  130 1    
   127   65   66 1    
   128   65   69 1    
   129   65  131 1    
   130   66   67 am   BACKBONE|DICT|INTERRES
   131   66   68 2    
   132   67  132 1    
   133   67  133 1    
   134   69   70 1    
   135   69  134 1    
   136   69  135 1    
   137   70   71 1    
   138   71  136 1    
   139   71  137 1    
@<TRIPOS>SUBSTRUCTURE
     1 UNK         1 GROUP             0       ****    0 ROOT    
