@<TRIPOS>MOLECULE
3R137
137   139    1
SMALL
USER_CHARGES


@<TRIPOS>ATOM
      1 CA         32.6351   -5.7937   -4.5790 C.3       0 UNK        -0.2020 
      2 C          31.3038   -5.9634   -3.8619 C.2       0 UNK         0.4855 
      3 O          31.0118   -7.0519   -3.3644 O.2       0 UNK        -0.5197 
      4 N          30.5013   -4.8957   -3.7977 N.am      1 UNK        -0.4892 
      5 CA         29.1558   -4.9013   -3.2148 C.3       1 UNK         0.0835 
      6 C6         28.7534   -3.4950   -2.6965 C.3       12 UNK        -0.0855 
      7 S7         29.3096   -3.2599   -0.9772 S.3       12 UNK        -0.2931 
      8 C8         30.7832   -2.2071   -1.1936 C.3       12 UNK         0.0378 
      9 C9         30.4973   -0.7342   -1.4898 C.ar      12 UNK        -0.0802 
     10 C10        31.4897    0.0209   -2.1209 C.ar      12 UNK        -0.0944 
     11 C11        31.2976    1.3774   -2.3921 C.ar      12 UNK        -0.0787 
     12 C12        30.1036    1.9919   -2.0047 C.ar      12 UNK        -0.0862 
     13 C13        29.1068    1.2593   -1.3522 C.ar      12 UNK        -0.0733 
     14 C14        29.3073   -0.1019   -1.1022 C.ar      12 UNK        -0.0832 
     15 C15        27.8315    1.9449   -0.8759 C.3       12 UNK         0.0240 
     16 S16        26.4081    1.6163   -1.9652 S.3       12 UNK        -0.2522 
     17 C17        26.9253    2.4376   -3.5100 C.3       12 UNK        -0.0967 
     18 CA         27.3247    1.3939   -4.5936 C.3       5 UNK         0.0660 
     19 N          26.1913    0.5403   -4.9820 N.am      5 UNK        -0.4015 
     20 C          25.0991    0.9206   -5.6573 C.2       4 UNK         0.4946 
     21 O          24.9720    2.0276   -6.1864 O.2       4 UNK        -0.5353 
     22 CA         23.9346   -0.0930   -5.7098 C.3       4 UNK         0.0277 
     23 CB         22.6633    0.5088   -6.3398 C.3       4 UNK        -0.1981 
     24 N          24.2489   -1.3492   -6.3994 N.am      4 UNK        -0.4209 
     25 C          25.0195   -2.3358   -5.9239 C.2       3 UNK         0.4942 
     26 O          25.6580   -2.2541   -4.8702 O.2       3 UNK        -0.5208 
     27 CA         25.0704   -3.6215   -6.7723 C.3       3 UNK         0.0250 
     28 CB         25.8748   -3.4356   -8.0693 C.3       3 UNK        -0.1990 
     29 N          25.6550   -4.7307   -6.0233 N.am      3 UNK        -0.4232 
     30 C          25.0029   -5.5046   -5.1510 C.2       2 UNK         0.4993 
     31 O          23.7919   -5.4285   -4.9384 O.2       2 UNK        -0.5286 
     32 CA         25.8396   -6.5390   -4.3773 C.3       2 UNK         0.0209 
     33 CB         26.2134   -7.7406   -5.2686 C.3       2 UNK        -0.1931 
     34 N          27.0172   -5.9761   -3.6964 N.am      2 UNK        -0.4546 
     35 C          28.1293   -5.4448   -4.2276 C.2       1 UNK         0.5154 
     36 O          28.3379   -5.3491   -5.4404 O.2       1 UNK        -0.5181 
     37 C          28.0562    1.9975   -5.8173 C.2       5 UNK         0.5014 
     38 O          28.0593    1.3897   -6.8919 O.2       5 UNK        -0.5248 
     39 N          28.6908    3.1665   -5.6450 N.am      6 UNK        -0.4434 
     40 CA         29.4714    3.8681   -6.6692 C.3       6 UNK         0.0363 
     41 CB         30.1364    5.1048   -6.0444 C.3       6 UNK        -0.1936 
     42 C          28.6572    4.2680   -7.9105 C.2       6 UNK         0.5081 
     43 O          29.2135    4.2953   -9.0074 O.2       6 UNK        -0.5248 
     44 N          27.3516    4.5164   -7.7317 N.am      7 UNK        -0.4718 
     45 CA         26.3989    4.8120   -8.8065 C.3       7 UNK         0.0273 
     46 CB         25.0508    5.2188   -8.1903 C.3       7 UNK        -0.1935 
     47 C          26.2095    3.6473   -9.7962 C.2       7 UNK         0.5018 
     48 O          25.9268    3.8974  -10.9683 O.2       7 UNK        -0.5186 
     49 N          26.3903    2.4099   -9.3163 N.am      8 UNK        -0.4240 
     50 CA         26.3515    1.1836  -10.1145 C.3       8 UNK         0.0235 
     51 CB         25.4573    0.1670   -9.3898 C.3       8 UNK        -0.2000 
     52 C          27.7562    0.5978  -10.3553 C.2       8 UNK         0.4941 
     53 O          27.8526   -0.4907  -10.9234 O.2       8 UNK        -0.5273 
     54 N          28.8098    1.3030   -9.9106 N.am      9 UNK        -0.4262 
     55 CA         30.2226    0.9013   -9.9160 C.3       9 UNK         0.0264 
     56 CB         30.7686    0.8266  -11.3578 C.3       9 UNK        -0.1955 
     57 C          30.4949   -0.3816   -9.1010 C.2       9 UNK         0.5031 
     58 O          31.3499   -1.1847   -9.4798 O.2       9 UNK        -0.5390 
     59 N          29.7804   -0.5451   -7.9784 N.am      10 UNK        -0.4204 
     60 CA         29.8577   -1.7086   -7.0870 C.3       10 UNK         0.0237 
     61 CB         28.6138   -1.7221   -6.1892 C.3       10 UNK        -0.1985 
     62 C          31.1219   -1.7478   -6.2105 C.2       10 UNK         0.4970 
     63 O          31.3194   -2.7296   -5.4940 O.2       10 UNK        -0.4914 
     64 N          31.9284   -0.6815   -6.2447 N.am      11 UNK        -0.4285 
     65 CA         33.1624   -0.5296   -5.4639 C.3       11 UNK         0.1007 
     66 C          34.3477   -1.4206   -5.9379 C.2       11 UNK         0.5703 
     67 N          34.2837   -2.0497   -7.1061 N.am      11 UNK        -0.7361 
     68 O          35.3411   -1.5475   -5.2263 O.2       11 UNK        -0.4986 
     69 C69        33.5944    0.9571   -5.3490 C.3       12 UNK        -0.0947 
     70 S70        32.2466    2.1020   -4.8851 S.3       12 UNK        -0.2240 
     71 C71        32.3902    2.1878   -3.0736 C.3       12 UNK         0.0194 
     72 H72        33.4383   -6.2470   -3.9964 H         1 UNK         0.0906 
     73 H73        32.6007   -6.2821   -5.5538 H         1 UNK         0.0906 
     74 H74        32.8842   -4.7424   -4.7312 H         1 UNK         0.0906 
     75 H75        30.7619   -4.0556   -4.3114 H         1 UNK         0.3140 
     76 H76        29.1519   -5.5993   -2.3738 H         1 UNK         0.1085 
     77 H77        29.1446   -2.7031   -3.3376 H         1 UNK         0.0836 
     78 H78        27.6697   -3.3583   -2.6916 H         1 UNK         0.0836 
     79 H79        31.3747   -2.2584   -0.2788 H         1 UNK         0.0731 
     80 H80        31.4017   -2.6361   -1.9840 H         1 UNK         0.0731 
     81 H81        32.4265   -0.4471   -2.3847 H         1 UNK         0.1312 
     82 H82        29.9616    3.0470   -2.1935 H         1 UNK         0.1406 
     83 H83        28.5360   -0.6575   -0.5873 H         1 UNK         0.1631 
     84 H84        27.9805    3.0225   -0.7903 H         1 UNK         0.0717 
     85 H85        27.5888    1.5958    0.1288 H         1 UNK         0.0717 
     86 H86        26.1064    3.0677   -3.8621 H         1 UNK         0.0934 
     87 H87        27.7397    3.1178   -3.2645 H         1 UNK         0.0934 
     88 H88        28.0579    0.7290   -4.1367 H         1 UNK         0.0739 
     89 H89        26.2157   -0.4213   -4.6535 H         1 UNK         0.3093 
     90 H90        23.6940   -0.3359   -4.6723 H         1 UNK         0.0818 
     91 H91        21.8235   -0.1839   -6.2820 H         1 UNK         0.0819 
     92 H92        22.3631    1.4194   -5.8194 H         1 UNK         0.0819 
     93 H93        22.8138    0.7696   -7.3876 H         1 UNK         0.0819 
     94 H94        23.7844   -1.4917   -7.2844 H         1 UNK         0.3041 
     95 H95        24.0444   -3.8820   -7.0417 H         1 UNK         0.0784 
     96 H96        25.4808   -2.6174   -8.6686 H         1 UNK         0.0793 
     97 H97        26.9273   -3.2321   -7.8779 H         1 UNK         0.0793 
     98 H98        25.8256   -4.3315   -8.6886 H         1 UNK         0.0793 
     99 H99        26.6655   -4.8399   -6.0678 H         1 UNK         0.3024 
    100 H100       25.1950   -6.9185   -3.5824 H         1 UNK         0.1171 
    101 H101       26.8490   -7.4518   -6.1059 H         1 UNK         0.0786 
    102 H102       25.3198   -8.2045   -5.6882 H         1 UNK         0.0786 
    103 H103       26.7387   -8.5071   -4.6990 H         1 UNK         0.0786 
    104 H104       26.9416   -5.9648   -2.6880 H         1 UNK         0.2977 
    105 H105       28.6583    3.6058   -4.7378 H         1 UNK         0.3127 
    106 H106       30.2577    3.1884   -7.0040 H         1 UNK         0.0770 
    107 H107       29.3988    5.8180   -5.6743 H         1 UNK         0.0814 
    108 H108       30.7542    5.6259   -6.7772 H         1 UNK         0.0814 
    109 H109       30.7871    4.8314   -5.2137 H         1 UNK         0.0814 
    110 H110       26.9735    4.4422   -6.7981 H         1 UNK         0.2983 
    111 H111       26.7889    5.6603   -9.3734 H         1 UNK         0.0947 
    112 H112       24.3265    5.4691   -8.9668 H         1 UNK         0.0806 
    113 H113       25.1536    6.0956   -7.5506 H         1 UNK         0.0806 
    114 H114       24.6215    4.4136   -7.5923 H         1 UNK         0.0806 
    115 H115       26.6204    2.2967   -8.3346 H         1 UNK         0.3000 
    116 H116       25.9142    1.3824  -11.0950 H         1 UNK         0.0850 
    117 H117       25.3013   -0.7177  -10.0068 H         1 UNK         0.0810 
    118 H118       25.9053   -0.1539   -8.4488 H         1 UNK         0.0810 
    119 H119       24.4754    0.5863   -9.1726 H         1 UNK         0.0810 
    120 H120       28.6212    2.1999   -9.4801 H         1 UNK         0.3040 
    121 H121       30.7616    1.7002   -9.4043 H         1 UNK         0.0766 
    122 H122       30.5794    1.7521  -11.9017 H         1 UNK         0.0812 
    123 H123       30.3178    0.0081  -11.9198 H         1 UNK         0.0812 
    124 H124       31.8473    0.6657  -11.3601 H         1 UNK         0.0812 
    125 H125       29.1112    0.1783   -7.7131 H         1 UNK         0.3205 
    126 H126       29.8486   -2.6085   -7.7054 H         1 UNK         0.0754 
    127 H127       28.4295   -2.7208   -5.7956 H         1 UNK         0.0769 
    128 H128       27.7211   -1.4093   -6.7287 H         1 UNK         0.0769 
    129 H129       28.7307   -1.0598   -5.3336 H         1 UNK         0.0769 
    130 H130       31.6835    0.0917   -6.8425 H         1 UNK         0.2981 
    131 H131       32.9348   -0.8796   -4.4589 H         1 UNK         0.0541 
    132 H132       35.0560   -2.6265   -7.3996 H         1 UNK         0.3459 
    133 H133       33.4739   -1.9475   -7.6983 H         1 UNK         0.3459 
    134 H134       33.9845    1.3022   -6.3082 H         1 UNK         0.0612 
    135 H135       34.4172    1.0640   -4.6402 H         1 UNK         0.0612 
    136 H136       32.3190    3.2337   -2.7716 H         1 UNK         0.0624 
    137 H137       33.3734    1.8481   -2.7460 H         1 UNK         0.0624 
@<TRIPOS>BOND
     1    1    2 1    
     2    1   72 1    
     3    1   73 1    
     4    1   74 1    
     5    2    3 2    
     6    2    4 am   BACKBONE|DICT|INTERRES
     7    4    5 1    
     8    4   75 1    
     9    5    6 1    
    10    5   35 1    
    11    5   76 1    
    12    6    7 1    
    13    6   77 1    
    14    6   78 1    
    15    7    8 1    
    16    8    9 1    
    17    8   79 1    
    18    8   80 1    
    19    9   10 ar   
    20    9   14 ar   
    21   10   11 ar   
    22   10   81 1    
    23   11   12 ar   
    24   11   71 1    
    25   12   13 ar   
    26   12   82 1    
    27   13   14 ar   
    28   13   15 1    
    29   14   83 1    
    30   15   16 1    
    31   15   84 1    
    32   15   85 1    
    33   16   17 1    
    34   17   18 1    
    35   17   86 1    
    36   17   87 1    
    37   18   19 1    
    38   18   37 1    
    39   18   88 1    
    40   19   20 am   BACKBONE|DICT|INTERRES
    41   19   89 1    
    42   20   21 2    
    43   20   22 1    
    44   22   23 1    
    45   22   24 1    
    46   22   90 1    
    47   23   91 1    
    48   23   92 1    
    49   23   93 1    
    50   24   25 am   BACKBONE|DICT|INTERRES
    51   24   94 1    
    52   25   26 2    
    53   25   27 1    
    54   27   28 1    
    55   27   29 1    
    56   27   95 1    
    57   28   96 1    
    58   28   97 1    
    59   28   98 1    
    60   29   30 am   BACKBONE|DICT|INTERRES
    61   29   99 1    
    62   30   31 2    
    63   30   32 1    
    64   32   33 1    
    65   32   34 1    
    66   32  100 1    
    67   33  101 1    
    68   33  102 1    
    69   33  103 1    
    70   34   35 am   BACKBONE|DICT|INTERRES
    71   34  104 1    
    72   35   36 2    
    73   37   38 2    
    74   37   39 am   BACKBONE|DICT|INTERRES
    75   39   40 1    
    76   39  105 1    
    77   40   41 1    
    78   40   42 1    
    79   40  106 1    
    80   41  107 1    
    81   41  108 1    
    82   41  109 1    
    83   42   43 2    
    84   42   44 am   BACKBONE|DICT|INTERRES
    85   44   45 1    
    86   44  110 1    
    87   45   46 1    
    88   45   47 1    
    89   45  111 1    
    90   46  112 1    
    91   46  113 1    
    92   46  114 1    
    93   47   48 2    
    94   47   49 am   BACKBONE|DICT|INTERRES
    95   49   50 1    
    96   49  115 1    
    97   50   51 1    
    98   50   52 1    
    99   50  116 1    
   100   51  117 1    
   101   51  118 1    
   102   51  119 1    
   103   52   53 2    
   104   52   54 am   BACKBONE|DICT|INTERRES
   105   54   55 1    
   106   54  120 1    
   107   55   56 1    
   108   55   57 1    
   109   55  121 1    
   110   56  122 1    
   111   56  123 1    
   112   56  124 1    
   113   57   58 2    
   114   57   59 am   BACKBONE|DICT|INTERRES
   115   59   60 1    
   116   59  125 1    
   117   60   61 1    
   118   60   62 1    
   119   60  126 1    
   120   61  127 1    
   121   61  128 1    
   122   61  129 1    
   123   62   63 2    
   124   62   64 am   BACKBONE|DICT|INTERRES
   125   64   65 1    
   126   64  130 1    
   127   65   66 1    
   128   65   69 1    
   129   65  131 1    
   130   66   67 am   BACKBONE|DICT|INTERRES
   131   66   68 2    
   132   67  132 1    
   133   67  133 1    
   134   69   70 1    
   135   69  134 1    
   136   69  135 1    
   137   70   71 1    
   138   71  136 1    
   139   71  137 1    
@<TRIPOS>SUBSTRUCTURE
     1 UNK         1 GROUP             0       ****    0 ROOT    
