@<TRIPOS>MOLECULE
3R137
137   139    1
SMALL
USER_CHARGES


@<TRIPOS>ATOM
      1 CA         27.5655   -5.9639   -2.2615 C.3       0 UNK        -0.2020 
      2 C          27.0464   -5.2023   -1.0517 C.2       0 UNK         0.4855 
      3 O          26.1290   -5.6780   -0.3825 O.2       0 UNK        -0.5197 
      4 N          27.6232   -4.0274   -0.7591 N.am      1 UNK        -0.4892 
      5 CA         27.2083   -3.1563    0.3480 C.3       1 UNK         0.0835 
      6 C6         28.3393   -2.1942    0.8005 C.3       12 UNK        -0.0855 
      7 S7         28.9008   -1.0167   -0.4810 S.3       12 UNK        -0.2931 
      8 C8         30.5521   -1.6410   -0.9327 C.3       12 UNK         0.0378 
      9 C9         30.6929   -1.7214   -2.4446 C.ar      12 UNK        -0.0802 
     10 C10        31.2488   -0.6643   -3.1716 C.ar      12 UNK        -0.0944 
     11 C11        31.3542   -0.7396   -4.5654 C.ar      12 UNK        -0.0787 
     12 C12        30.8791   -1.8746   -5.2322 C.ar      12 UNK        -0.0862 
     13 C13        30.3131   -2.9313   -4.5140 C.ar      12 UNK        -0.0733 
     14 C14        30.2444   -2.8561   -3.1221 C.ar      12 UNK        -0.0832 
     15 C15        29.7594   -4.1557   -5.2236 C.3       12 UNK         0.0240 
     16 S16        27.9530   -4.0295   -5.4383 S.3       12 UNK        -0.2522 
     17 C17        27.8141   -3.3987   -7.1460 C.3       12 UNK        -0.0967 
     18 CA         26.9659   -2.1150   -7.3122 C.3       5 UNK         0.0660 
     19 N          25.5998   -2.2277   -6.8000 N.am      5 UNK        -0.4015 
     20 C          24.5253   -2.4087   -7.5805 C.2       4 UNK         0.4946 
     21 O          24.5835   -2.7238   -8.7703 O.2       4 UNK        -0.5353 
     22 CA         23.1411   -2.1495   -6.9537 C.3       4 UNK         0.0277 
     23 CB         22.5231   -3.4671   -6.4579 C.3       4 UNK        -0.1981 
     24 N          23.1418   -1.1774   -5.8552 N.am      4 UNK        -0.4209 
     25 C          23.6538    0.0633   -5.8831 C.2       3 UNK         0.4942 
     26 O          24.1469    0.5859   -6.8823 O.2       3 UNK        -0.5208 
     27 CA         23.6892    0.8354   -4.5526 C.3       3 UNK         0.0250 
     28 CB         22.5357    1.8494   -4.4948 C.3       3 UNK        -0.1990 
     29 N          23.6613    0.0020   -3.3419 N.am      3 UNK        -0.4232 
     30 C          24.5075   -0.9925   -3.0335 C.2       2 UNK         0.4993 
     31 O          25.3998   -1.4055   -3.7837 O.2       2 UNK        -0.5286 
     32 CA         24.2712   -1.6686   -1.6808 C.3       2 UNK         0.0209 
     33 CB         23.1781   -2.7463   -1.7960 C.3       2 UNK        -0.1931 
     34 N          25.5113   -2.2832   -1.2204 N.am      2 UNK        -0.4546 
     35 C          25.8792   -2.4199    0.0610 C.2       1 UNK         0.5154 
     36 O          25.2033   -2.0122    1.0079 O.2       1 UNK        -0.5181 
     37 C          27.6640   -0.8453   -6.7962 C.2       5 UNK         0.5014 
     38 O          28.4433   -0.2665   -7.5537 O.2       5 UNK        -0.5248 
     39 N          27.3649   -0.3843   -5.5707 N.am      6 UNK        -0.4434 
     40 CA         28.0331    0.7659   -4.9488 C.3       6 UNK         0.0363 
     41 CB         27.6521    0.8522   -3.4651 C.3       6 UNK        -0.1936 
     42 C          27.8116    2.1178   -5.6480 C.2       6 UNK         0.5081 
     43 O          28.6305    3.0189   -5.4643 O.2       6 UNK        -0.5248 
     44 N          26.7359    2.2411   -6.4359 N.am      7 UNK        -0.4718 
     45 CA         26.4252    3.4265   -7.2368 C.3       7 UNK         0.0273 
     46 CB         25.0175    3.9260   -6.8579 C.3       7 UNK        -0.1935 
     47 C          26.5396    3.1436   -8.7474 C.2       7 UNK         0.5018 
     48 O          26.0374    3.9494   -9.5385 O.2       7 UNK        -0.5186 
     49 N          27.1712    2.0218   -9.1338 N.am      8 UNK        -0.4240 
     50 CA         27.2733    1.5784  -10.5272 C.3       8 UNK         0.0235 
     51 CB         26.2888    0.4216  -10.7716 C.3       8 UNK        -0.2000 
     52 C          28.7000    1.1751  -10.9231 C.2       8 UNK         0.4941 
     53 O          29.1460    1.5573  -12.0063 O.2       8 UNK        -0.5273 
     54 N          29.3869    0.4005  -10.0745 N.am      9 UNK        -0.4262 
     55 CA         30.7289   -0.1150  -10.3377 C.3       9 UNK         0.0264 
     56 CB         30.9027   -1.4518   -9.5983 C.3       9 UNK        -0.1955 
     57 C          31.8018    0.8818   -9.8823 C.2       9 UNK         0.5031 
     58 O          31.6434    1.5280   -8.8440 O.2       9 UNK        -0.5390 
     59 N          32.9104    0.9346  -10.6287 N.am      10 UNK        -0.4204 
     60 CA         34.1183    1.6817  -10.2775 C.3       10 UNK         0.0237 
     61 CB         34.7958    2.1789  -11.5691 C.3       10 UNK        -0.1985 
     62 C          35.0389    0.7895   -9.4269 C.2       10 UNK         0.4970 
     63 O          36.0867    0.3501   -9.9053 O.2       10 UNK        -0.4914 
     64 N          34.5968    0.4910   -8.1997 N.am      11 UNK        -0.4285 
     65 CA         35.3195   -0.3336   -7.2207 C.3       11 UNK         0.1007 
     66 C          36.6556    0.2966   -6.7284 C.2       11 UNK         0.5703 
     67 N          37.5729   -0.5181   -6.2238 N.am      11 UNK        -0.7361 
     68 O          36.8608    1.5088   -6.7752 O.2       11 UNK        -0.4986 
     69 C69        34.3973   -0.7638   -6.0478 C.3       12 UNK        -0.0947 
     70 S70        33.7126    0.6323   -5.0886 S.3       12 UNK        -0.2240 
     71 C71        31.9240    0.4331   -5.3522 C.3       12 UNK         0.0194 
     72 H72        26.8617   -5.8765   -3.0889 H         1 UNK         0.0906 
     73 H73        28.5335   -5.5954   -2.5948 H         1 UNK         0.0906 
     74 H74        27.6773   -7.0208   -2.0211 H         1 UNK         0.0906 
     75 H75        28.3538   -3.6559   -1.3456 H         1 UNK         0.3140 
     76 H76        26.9980   -3.8039    1.2027 H         1 UNK         0.1085 
     77 H77        29.1873   -2.7744    1.1663 H         1 UNK         0.0836 
     78 H78        28.0063   -1.6122    1.6621 H         1 UNK         0.0836 
     79 H79        31.3115   -0.9795   -0.5130 H         1 UNK         0.0731 
     80 H80        30.7309   -2.6250   -0.4976 H         1 UNK         0.0731 
     81 H81        31.5924    0.2220   -2.6558 H         1 UNK         0.1312 
     82 H82        30.9317   -1.9285   -6.3094 H         1 UNK         0.1406 
     83 H83        29.8251   -3.6796   -2.5668 H         1 UNK         0.1631 
     84 H84        29.9770   -5.0463   -4.6325 H         1 UNK         0.0717 
     85 H85        30.2574   -4.3106   -6.1816 H         1 UNK         0.0717 
     86 H86        28.8059   -3.2418   -7.5733 H         1 UNK         0.0934 
     87 H87        27.3690   -4.1942   -7.7456 H         1 UNK         0.0934 
     88 H88        26.9062   -1.9491   -8.3894 H         1 UNK         0.0739 
     89 H89        25.4583   -2.0123   -5.8202 H         1 UNK         0.3093 
     90 H90        22.5031   -1.7426   -7.7408 H         1 UNK         0.0818 
     91 H91        21.5007   -3.3213   -6.1088 H         1 UNK         0.0819 
     92 H92        22.4865   -4.2068   -7.2590 H         1 UNK         0.0819 
     93 H93        23.1005   -3.9008   -5.6402 H         1 UNK         0.0819 
     94 H94        22.7683   -1.5013   -4.9756 H         1 UNK         0.3041 
     95 H95        24.6257    1.3940   -4.5384 H         1 UNK         0.0784 
     96 H96        22.5380    2.4973   -5.3726 H         1 UNK         0.0793 
     97 H97        21.5644    1.3546   -4.4589 H         1 UNK         0.0793 
     98 H98        22.6177    2.4958   -3.6208 H         1 UNK         0.0793 
     99 H99        22.9479    0.2416   -2.6676 H         1 UNK         0.3024 
    100 H100       23.9586   -0.9033   -0.9662 H         1 UNK         0.1171 
    101 H101       22.2319   -2.3179   -2.1287 H         1 UNK         0.0786 
    102 H102       22.9932   -3.2263   -0.8347 H         1 UNK         0.0786 
    103 H103       23.4553   -3.5250   -2.5081 H         1 UNK         0.0786 
    104 H104       26.1397   -2.5825   -1.9547 H         1 UNK         0.2977 
    105 H105       26.7190   -0.8921   -4.9711 H         1 UNK         0.3127 
    106 H106       29.1010    0.5694   -5.0015 H         1 UNK         0.0770 
    107 H107       26.6162    1.1567   -3.3250 H         1 UNK         0.0814 
    108 H108       28.2779    1.5779   -2.9443 H         1 UNK         0.0814 
    109 H109       27.7910   -0.1083   -2.9712 H         1 UNK         0.0814 
    110 H110       26.1032    1.4556   -6.5447 H         1 UNK         0.2983 
    111 H111       27.1321    4.2314   -7.0227 H         1 UNK         0.0947 
    112 H112       24.7974    4.8791   -7.3402 H         1 UNK         0.0806 
    113 H113       24.9255    4.0815   -5.7823 H         1 UNK         0.0806 
    114 H114       24.2428    3.2222   -7.1642 H         1 UNK         0.0806 
    115 H115       27.6003    1.4309   -8.4275 H         1 UNK         0.3000 
    116 H116       26.9948    2.3932  -11.1992 H         1 UNK         0.0850 
    117 H117       26.3346    0.0805  -11.8068 H         1 UNK         0.0810 
    118 H118       25.2614    0.7299  -10.5768 H         1 UNK         0.0810 
    119 H119       26.5040   -0.4361  -10.1351 H         1 UNK         0.0810 
    120 H120       28.9975    0.1681   -9.1619 H         1 UNK         0.3040 
    121 H121       30.8410   -0.2997  -11.4085 H         1 UNK         0.0766 
    122 H122       30.1541   -2.1796   -9.9118 H         1 UNK         0.0812 
    123 H123       31.8833   -1.8869   -9.7954 H         1 UNK         0.0812 
    124 H124       30.8137   -1.3239   -8.5200 H         1 UNK         0.0812 
    125 H125       32.9760    0.3388  -11.4423 H         1 UNK         0.3205 
    126 H126       33.8573    2.5585   -9.6804 H         1 UNK         0.0754 
    127 H127       35.7037    2.7393  -11.3415 H         1 UNK         0.0769 
    128 H128       34.1380    2.8439  -12.1291 H         1 UNK         0.0769 
    129 H129       35.0765    1.3549  -12.2265 H         1 UNK         0.0769 
    130 H130       33.7267    0.8989   -7.8852 H         1 UNK         0.2981 
    131 H131       35.5975   -1.2469   -7.7505 H         1 UNK         0.0541 
    132 H132       37.4161   -1.5126   -6.1705 H         1 UNK         0.3459 
    133 H133       38.4412   -0.1299   -5.8899 H         1 UNK         0.3459 
    134 H134       34.9338   -1.4175   -5.3582 H         1 UNK         0.0612 
    135 H135       33.5787   -1.3690   -6.4391 H         1 UNK         0.0612 
    136 H136       31.4236    1.3504   -5.0388 H         1 UNK         0.0624 
    137 H137       31.7197    0.3255   -6.4183 H         1 UNK         0.0624 
@<TRIPOS>BOND
     1    1    2 1    
     2    1   72 1    
     3    1   73 1    
     4    1   74 1    
     5    2    3 2    
     6    2    4 am   BACKBONE|DICT|INTERRES
     7    4    5 1    
     8    4   75 1    
     9    5    6 1    
    10    5   35 1    
    11    5   76 1    
    12    6    7 1    
    13    6   77 1    
    14    6   78 1    
    15    7    8 1    
    16    8    9 1    
    17    8   79 1    
    18    8   80 1    
    19    9   10 ar   
    20    9   14 ar   
    21   10   11 ar   
    22   10   81 1    
    23   11   12 ar   
    24   11   71 1    
    25   12   13 ar   
    26   12   82 1    
    27   13   14 ar   
    28   13   15 1    
    29   14   83 1    
    30   15   16 1    
    31   15   84 1    
    32   15   85 1    
    33   16   17 1    
    34   17   18 1    
    35   17   86 1    
    36   17   87 1    
    37   18   19 1    
    38   18   37 1    
    39   18   88 1    
    40   19   20 am   BACKBONE|DICT|INTERRES
    41   19   89 1    
    42   20   21 2    
    43   20   22 1    
    44   22   23 1    
    45   22   24 1    
    46   22   90 1    
    47   23   91 1    
    48   23   92 1    
    49   23   93 1    
    50   24   25 am   BACKBONE|DICT|INTERRES
    51   24   94 1    
    52   25   26 2    
    53   25   27 1    
    54   27   28 1    
    55   27   29 1    
    56   27   95 1    
    57   28   96 1    
    58   28   97 1    
    59   28   98 1    
    60   29   30 am   BACKBONE|DICT|INTERRES
    61   29   99 1    
    62   30   31 2    
    63   30   32 1    
    64   32   33 1    
    65   32   34 1    
    66   32  100 1    
    67   33  101 1    
    68   33  102 1    
    69   33  103 1    
    70   34   35 am   BACKBONE|DICT|INTERRES
    71   34  104 1    
    72   35   36 2    
    73   37   38 2    
    74   37   39 am   BACKBONE|DICT|INTERRES
    75   39   40 1    
    76   39  105 1    
    77   40   41 1    
    78   40   42 1    
    79   40  106 1    
    80   41  107 1    
    81   41  108 1    
    82   41  109 1    
    83   42   43 2    
    84   42   44 am   BACKBONE|DICT|INTERRES
    85   44   45 1    
    86   44  110 1    
    87   45   46 1    
    88   45   47 1    
    89   45  111 1    
    90   46  112 1    
    91   46  113 1    
    92   46  114 1    
    93   47   48 2    
    94   47   49 am   BACKBONE|DICT|INTERRES
    95   49   50 1    
    96   49  115 1    
    97   50   51 1    
    98   50   52 1    
    99   50  116 1    
   100   51  117 1    
   101   51  118 1    
   102   51  119 1    
   103   52   53 2    
   104   52   54 am   BACKBONE|DICT|INTERRES
   105   54   55 1    
   106   54  120 1    
   107   55   56 1    
   108   55   57 1    
   109   55  121 1    
   110   56  122 1    
   111   56  123 1    
   112   56  124 1    
   113   57   58 2    
   114   57   59 am   BACKBONE|DICT|INTERRES
   115   59   60 1    
   116   59  125 1    
   117   60   61 1    
   118   60   62 1    
   119   60  126 1    
   120   61  127 1    
   121   61  128 1    
   122   61  129 1    
   123   62   63 2    
   124   62   64 am   BACKBONE|DICT|INTERRES
   125   64   65 1    
   126   64  130 1    
   127   65   66 1    
   128   65   69 1    
   129   65  131 1    
   130   66   67 am   BACKBONE|DICT|INTERRES
   131   66   68 2    
   132   67  132 1    
   133   67  133 1    
   134   69   70 1    
   135   69  134 1    
   136   69  135 1    
   137   70   71 1    
   138   71  136 1    
   139   71  137 1    
@<TRIPOS>SUBSTRUCTURE
     1 UNK         1 GROUP             0       ****    0 ROOT    
