@<TRIPOS>MOLECULE
3R137
137   139    1
SMALL
USER_CHARGES


@<TRIPOS>ATOM
      1 CA         25.6479   -4.9365    1.9088 C.3       0 UNK        -0.2020 
      2 C          26.1073   -3.9168    0.8771 C.2       0 UNK         0.4855 
      3 O          25.7591   -4.0412   -0.2971 O.2       0 UNK        -0.5197 
      4 N          26.8920   -2.9189    1.3092 N.am      1 UNK        -0.4892 
      5 CA         27.3975   -1.7966    0.5046 C.3       1 UNK         0.0835 
      6 C6         28.2481   -2.2675   -0.7138 C.3       12 UNK        -0.0855 
      7 S7         29.6001   -1.1122   -1.1257 S.3       12 UNK        -0.2931 
      8 C8         30.9017   -2.2562   -1.6879 C.3       12 UNK         0.0378 
      9 C9         30.7086   -2.6787   -3.1388 C.ar      12 UNK        -0.0802 
     10 C10        31.4497   -2.0600   -4.1503 C.ar      12 UNK        -0.0944 
     11 C11        31.3206   -2.4725   -5.4796 C.ar      12 UNK        -0.0787 
     12 C12        30.4325   -3.5022   -5.7987 C.ar      12 UNK        -0.0862 
     13 C13        29.6665   -4.1130   -4.8022 C.ar      12 UNK        -0.0733 
     14 C14        29.8146   -3.7023   -3.4727 C.ar      12 UNK        -0.0832 
     15 C15        28.7004   -5.2351   -5.1542 C.3       12 UNK         0.0240 
     16 S16        27.0742   -4.6011   -5.6757 S.3       12 UNK        -0.2522 
     17 C17        27.3035   -4.3514   -7.4755 C.3       12 UNK        -0.0967 
     18 CA         26.8597   -2.9580   -7.9896 C.3       5 UNK         0.0660 
     19 N          25.4835   -2.6449   -7.5959 N.am      5 UNK        -0.4015 
     20 C          24.7514   -1.6352   -8.0836 C.2       4 UNK         0.4946 
     21 O          25.1412   -0.8739   -8.9673 O.2       4 UNK        -0.5353 
     22 CA         23.3712   -1.3981   -7.4414 C.3       4 UNK         0.0277 
     23 CB         22.2951   -2.2188   -8.1698 C.3       4 UNK        -0.1981 
     24 N          23.3083   -1.6751   -5.9992 N.am      4 UNK        -0.4209 
     25 C          24.1268   -1.1549   -5.0734 C.2       3 UNK         0.4942 
     26 O          25.0723   -0.4109   -5.3450 O.2       3 UNK        -0.5208 
     27 CA         23.8747   -1.5822   -3.6175 C.3       3 UNK         0.0250 
     28 CB         24.1616   -3.0818   -3.4275 C.3       3 UNK        -0.1990 
     29 N          24.7281   -0.8355   -2.6951 N.am      3 UNK        -0.4232 
     30 C          24.5275    0.4240   -2.2859 C.2       2 UNK         0.4993 
     31 O          23.5157    1.0751   -2.5535 O.2       2 UNK        -0.5286 
     32 CA         25.6607    1.0693   -1.4577 C.3       2 UNK         0.0209 
     33 CB         25.1386    2.0952   -0.4284 C.3       2 UNK        -0.1931 
     34 N          26.5666    0.0917   -0.8306 N.am      2 UNK        -0.4546 
     35 C          26.2692   -0.8069    0.1208 C.2       1 UNK         0.5154 
     36 O          25.1719   -0.8676    0.6823 O.2       1 UNK        -0.5181 
     37 C          27.8693   -1.8492   -7.6177 C.2       5 UNK         0.5014 
     38 O          28.8054   -1.6159   -8.3826 O.2       5 UNK        -0.5248 
     39 N          27.6544   -1.1784   -6.4774 N.am      6 UNK        -0.4434 
     40 CA         28.4704   -0.0590   -6.0057 C.3       6 UNK         0.0363 
     41 CB         28.3631    0.0342   -4.4758 C.3       6 UNK        -0.1936 
     42 C          28.0448    1.2645   -6.6580 C.2       6 UNK         0.5081 
     43 O          28.8863    2.1373   -6.8665 O.2       6 UNK        -0.5248 
     44 N          26.7491    1.3958   -6.9758 N.am      7 UNK        -0.4718 
     45 CA         26.1907    2.5328   -7.7100 C.3       7 UNK         0.0273 
     46 CB         24.6578    2.5061   -7.6105 C.3       7 UNK        -0.1935 
     47 C          26.6414    2.5629   -9.1813 C.2       7 UNK         0.5018 
     48 O          26.8407    3.6501   -9.7244 O.2       7 UNK        -0.5186 
     49 N          26.7952    1.3787   -9.7938 N.am      8 UNK        -0.4240 
     50 CA         27.2458    1.1933  -11.1752 C.3       8 UNK         0.0235 
     51 CB         27.1202   -0.2881  -11.5672 C.3       8 UNK        -0.2000 
     52 C          28.6749    1.6981  -11.4348 C.2       8 UNK         0.4941 
     53 O          28.9101    2.3071  -12.4799 O.2       8 UNK        -0.5273 
     54 N          29.5954    1.4521  -10.4941 N.am      9 UNK        -0.4262 
     55 CA         30.9815    1.9072  -10.5516 C.3       9 UNK         0.0264 
     56 CB         31.8012    1.0303  -11.5183 C.3       9 UNK        -0.1955 
     57 C          31.5838    1.8543   -9.1469 C.2       9 UNK         0.5031 
     58 O          31.3748    0.8706   -8.4340 O.2       9 UNK        -0.5390 
     59 N          32.3720    2.8778   -8.7956 N.am      10 UNK        -0.4204 
     60 CA         33.1417    2.9546   -7.5522 C.3       10 UNK         0.0237 
     61 CB         33.4645    4.4300   -7.2498 C.3       10 UNK        -0.1985 
     62 C          34.4053    2.0814   -7.6556 C.2       10 UNK         0.4970 
     63 O          35.5068    2.6030   -7.8371 O.2       10 UNK        -0.4914 
     64 N          34.2017    0.7615   -7.5951 N.am      11 UNK        -0.4285 
     65 CA         35.2228   -0.2789   -7.7849 C.3       11 UNK         0.1007 
     66 C          36.3570   -0.3408   -6.7167 C.2       11 UNK         0.5703 
     67 N          36.2347    0.3250   -5.5742 N.am      11 UNK        -0.7361 
     68 O          37.3718   -0.9975   -6.9384 O.2       11 UNK        -0.4986 
     69 C69        34.5614   -1.6593   -8.0513 C.3       12 UNK        -0.0947 
     70 S70        33.8391   -2.4694   -6.5811 S.3       12 UNK        -0.2240 
     71 C71        32.1456   -1.8096   -6.5695 C.3       12 UNK         0.0194 
     72 H72        25.9805   -5.9343    1.6236 H         1 UNK         0.0906 
     73 H73        26.0403   -4.7194    2.9021 H         1 UNK         0.0906 
     74 H74        24.5599   -4.9440    1.9682 H         1 UNK         0.0906 
     75 H75        27.1109   -2.8657    2.2948 H         1 UNK         0.3140 
     76 H76        28.0499   -1.2438    1.1830 H         1 UNK         0.1085 
     77 H77        27.6318   -2.4445   -1.5977 H         1 UNK         0.0836 
     78 H78        28.6997   -3.2325   -0.4802 H         1 UNK         0.0836 
     79 H79        31.8660   -1.7587   -1.5728 H         1 UNK         0.0731 
     80 H80        30.9443   -3.1336   -1.0411 H         1 UNK         0.0731 
     81 H81        32.1428   -1.2674   -3.9032 H         1 UNK         0.1312 
     82 H82        30.3373   -3.8225   -6.8264 H         1 UNK         0.1406 
     83 H83        29.2370   -4.1852   -2.6969 H         1 UNK         0.1631 
     84 H84        28.5540   -5.8801   -4.2864 H         1 UNK         0.0717 
     85 H85        29.1231   -5.8743   -5.9307 H         1 UNK         0.0717 
     86 H86        28.3366   -4.5520   -7.7622 H         1 UNK         0.0934 
     87 H87        26.7177   -5.1197   -7.9827 H         1 UNK         0.0934 
     88 H88        26.8623   -3.0072   -9.0810 H         1 UNK         0.0739 
     89 H89        25.0947   -3.2155   -6.8595 H         1 UNK         0.3093 
     90 H90        23.1326   -0.3415   -7.5710 H         1 UNK         0.0818 
     91 H91        21.2958   -1.9737   -7.8096 H         1 UNK         0.0819 
     92 H92        22.3083   -2.0150   -9.2417 H         1 UNK         0.0819 
     93 H93        22.4464   -3.2912   -8.0404 H         1 UNK         0.0819 
     94 H94        22.5622   -2.2835   -5.6931 H         1 UNK         0.3041 
     95 H95        22.8285   -1.3831   -3.3760 H         1 UNK         0.0784 
     96 H96        23.5327   -3.6989   -4.0700 H         1 UNK         0.0793 
     97 H97        25.2003   -3.3262   -3.6528 H         1 UNK         0.0793 
     98 H98        23.9669   -3.3916   -2.4002 H         1 UNK         0.0793 
     99 H99        25.5952   -1.2788   -2.4355 H         1 UNK         0.3024 
    100 H100       26.2669    1.6190   -2.1798 H         1 UNK         0.1171 
    101 H101       24.6102    2.9108   -0.9236 H         1 UNK         0.0786 
    102 H102       25.9559    2.5395    0.1395 H         1 UNK         0.0786 
    103 H103       24.4426    1.6444    0.2794 H         1 UNK         0.0786 
    104 H104       27.5089    0.0645   -1.2034 H         1 UNK         0.2977 
    105 H105       26.8166   -1.3746   -5.9432 H         1 UNK         0.3127 
    106 H106       29.5144   -0.2444   -6.2674 H         1 UNK         0.0770 
    107 H107       27.3592    0.3110   -4.1546 H         1 UNK         0.0814 
    108 H108       28.6131   -0.9165   -4.0070 H         1 UNK         0.0814 
    109 H109       29.0521    0.7826   -4.0828 H         1 UNK         0.0814 
    110 H110       26.1063    0.6652   -6.6864 H         1 UNK         0.2983 
    111 H111       26.5481    3.4484   -7.2335 H         1 UNK         0.0947 
    112 H112       24.2255    3.4037   -8.0544 H         1 UNK         0.0806 
    113 H113       24.3249    2.4621   -6.5732 H         1 UNK         0.0806 
    114 H114       24.2361    1.6504   -8.1369 H         1 UNK         0.0806 
    115 H115       26.5054    0.5420   -9.2960 H         1 UNK         0.3000 
    116 H116       26.5754    1.7704  -11.8156 H         1 UNK         0.0850 
    117 H117       27.4617   -0.4535  -12.5900 H         1 UNK         0.0810 
    118 H118       26.0848   -0.6251  -11.5150 H         1 UNK         0.0810 
    119 H119       27.7145   -0.9297  -10.9154 H         1 UNK         0.0810 
    120 H120       29.3421    0.9517   -9.6495 H         1 UNK         0.3040 
    121 H121       30.9954    2.9417  -10.9019 H         1 UNK         0.0766 
    122 H122       32.8464    1.3417  -11.5393 H         1 UNK         0.0812 
    123 H123       31.4253    1.0972  -12.5392 H         1 UNK         0.0812 
    124 H124       31.7791   -0.0193  -11.2217 H         1 UNK         0.0812 
    125 H125       32.5229    3.6237   -9.4598 H         1 UNK         0.3205 
    126 H126       32.5321    2.5711   -6.7304 H         1 UNK         0.0754 
    127 H127       34.0402    4.5215   -6.3277 H         1 UNK         0.0769 
    128 H128       32.5537    5.0152   -7.1206 H         1 UNK         0.0769 
    129 H129       34.0491    4.8918   -8.0466 H         1 UNK         0.0769 
    130 H130       33.2433    0.4407   -7.5278 H         1 UNK         0.2981 
    131 H131       35.7353   -0.0079   -8.7099 H         1 UNK         0.0541 
    132 H132       35.4076    0.8671   -5.3863 H         1 UNK         0.3459 
    133 H133       36.9774    0.2811   -4.8948 H         1 UNK         0.3459 
    134 H134       35.3055   -2.3434   -8.4627 H         1 UNK         0.0612 
    135 H135       33.7955   -1.5695   -8.8236 H         1 UNK         0.0612 
    136 H136       31.6819   -1.9569   -7.5466 H         1 UNK         0.0624 
    137 H137       32.1713   -0.7344   -6.3938 H         1 UNK         0.0624 
@<TRIPOS>BOND
     1    1    2 1    
     2    1   72 1    
     3    1   73 1    
     4    1   74 1    
     5    2    3 2    
     6    2    4 am   BACKBONE|DICT|INTERRES
     7    4    5 1    
     8    4   75 1    
     9    5    6 1    
    10    5   35 1    
    11    5   76 1    
    12    6    7 1    
    13    6   77 1    
    14    6   78 1    
    15    7    8 1    
    16    8    9 1    
    17    8   79 1    
    18    8   80 1    
    19    9   10 ar   
    20    9   14 ar   
    21   10   11 ar   
    22   10   81 1    
    23   11   12 ar   
    24   11   71 1    
    25   12   13 ar   
    26   12   82 1    
    27   13   14 ar   
    28   13   15 1    
    29   14   83 1    
    30   15   16 1    
    31   15   84 1    
    32   15   85 1    
    33   16   17 1    
    34   17   18 1    
    35   17   86 1    
    36   17   87 1    
    37   18   19 1    
    38   18   37 1    
    39   18   88 1    
    40   19   20 am   BACKBONE|DICT|INTERRES
    41   19   89 1    
    42   20   21 2    
    43   20   22 1    
    44   22   23 1    
    45   22   24 1    
    46   22   90 1    
    47   23   91 1    
    48   23   92 1    
    49   23   93 1    
    50   24   25 am   BACKBONE|DICT|INTERRES
    51   24   94 1    
    52   25   26 2    
    53   25   27 1    
    54   27   28 1    
    55   27   29 1    
    56   27   95 1    
    57   28   96 1    
    58   28   97 1    
    59   28   98 1    
    60   29   30 am   BACKBONE|DICT|INTERRES
    61   29   99 1    
    62   30   31 2    
    63   30   32 1    
    64   32   33 1    
    65   32   34 1    
    66   32  100 1    
    67   33  101 1    
    68   33  102 1    
    69   33  103 1    
    70   34   35 am   BACKBONE|DICT|INTERRES
    71   34  104 1    
    72   35   36 2    
    73   37   38 2    
    74   37   39 am   BACKBONE|DICT|INTERRES
    75   39   40 1    
    76   39  105 1    
    77   40   41 1    
    78   40   42 1    
    79   40  106 1    
    80   41  107 1    
    81   41  108 1    
    82   41  109 1    
    83   42   43 2    
    84   42   44 am   BACKBONE|DICT|INTERRES
    85   44   45 1    
    86   44  110 1    
    87   45   46 1    
    88   45   47 1    
    89   45  111 1    
    90   46  112 1    
    91   46  113 1    
    92   46  114 1    
    93   47   48 2    
    94   47   49 am   BACKBONE|DICT|INTERRES
    95   49   50 1    
    96   49  115 1    
    97   50   51 1    
    98   50   52 1    
    99   50  116 1    
   100   51  117 1    
   101   51  118 1    
   102   51  119 1    
   103   52   53 2    
   104   52   54 am   BACKBONE|DICT|INTERRES
   105   54   55 1    
   106   54  120 1    
   107   55   56 1    
   108   55   57 1    
   109   55  121 1    
   110   56  122 1    
   111   56  123 1    
   112   56  124 1    
   113   57   58 2    
   114   57   59 am   BACKBONE|DICT|INTERRES
   115   59   60 1    
   116   59  125 1    
   117   60   61 1    
   118   60   62 1    
   119   60  126 1    
   120   61  127 1    
   121   61  128 1    
   122   61  129 1    
   123   62   63 2    
   124   62   64 am   BACKBONE|DICT|INTERRES
   125   64   65 1    
   126   64  130 1    
   127   65   66 1    
   128   65   69 1    
   129   65  131 1    
   130   66   67 am   BACKBONE|DICT|INTERRES
   131   66   68 2    
   132   67  132 1    
   133   67  133 1    
   134   69   70 1    
   135   69  134 1    
   136   69  135 1    
   137   70   71 1    
   138   71  136 1    
   139   71  137 1    
@<TRIPOS>SUBSTRUCTURE
     1 UNK         1 GROUP             0       ****    0 ROOT    
