@<TRIPOS>MOLECULE
3R137
137   139    1
SMALL
USER_CHARGES


@<TRIPOS>ATOM
      1 CA         22.3797   -3.5630   -5.2380 C.3       0 UNK        -0.2020 
      2 C          23.7342   -3.1819   -4.6639 C.2       0 UNK         0.4855 
      3 O          24.0936   -2.0049   -4.6810 O.2       0 UNK        -0.5197 
      4 N          24.4809   -4.1720   -4.1565 N.am      1 UNK        -0.4892 
      5 CA         25.8138   -4.0604   -3.5472 C.3       1 UNK         0.0835 
      6 C6         26.9340   -3.7102   -4.5729 C.3       12 UNK        -0.0855 
      7 S7         28.4406   -4.7085   -4.3315 S.3       12 UNK        -0.2931 
      8 C8         29.2158   -3.9502   -2.8643 C.3       12 UNK         0.0378 
      9 C9         30.0459   -2.7186   -3.1959 C.ar      12 UNK        -0.0802 
     10 C10        31.2959   -2.8791   -3.7971 C.ar      12 UNK        -0.0944 
     11 C11        32.1224   -1.7781   -4.0289 C.ar      12 UNK        -0.0787 
     12 C12        31.6801   -0.5014   -3.6697 C.ar      12 UNK        -0.0862 
     13 C13        30.4338   -0.3189   -3.0573 C.ar      12 UNK        -0.0733 
     14 C14        29.6187   -1.4373   -2.8264 C.ar      12 UNK        -0.0832 
     15 C15        30.0582    1.0835   -2.5695 C.3       12 UNK         0.0240 
     16 S16        28.2705    1.4532   -2.4963 S.3       12 UNK        -0.2522 
     17 C17        27.8416    1.5484   -4.2650 C.3       12 UNK        -0.0967 
     18 CA         26.8483    0.4249   -4.6603 C.3       5 UNK         0.0660 
     19 N          25.5340    0.5174   -4.0103 N.am      5 UNK        -0.4015 
     20 C          24.6149    1.4678   -4.2396 C.2       4 UNK         0.4946 
     21 O          24.8352    2.4721   -4.9192 O.2       4 UNK        -0.5353 
     22 CA         23.2002    1.2912   -3.6649 C.3       4 UNK         0.0277 
     23 CB         22.1623    1.2186   -4.8031 C.3       4 UNK        -0.1981 
     24 N          23.0242    0.1217   -2.7961 N.am      4 UNK        -0.4209 
     25 C          22.1946    0.1202   -1.7404 C.2       3 UNK         0.4942 
     26 O          21.6263    1.1271   -1.3142 O.2       3 UNK        -0.5208 
     27 CA         21.9021   -1.2260   -1.0587 C.3       3 UNK         0.0250 
     28 CB         20.8336   -2.0064   -1.8418 C.3       3 UNK        -0.1990 
     29 N          23.0857   -2.0629   -0.8814 N.am      3 UNK        -0.4232 
     30 C          24.0610   -1.8299    0.0082 C.2       2 UNK         0.4993 
     31 O          24.0722   -0.8706    0.7802 O.2       2 UNK        -0.5286 
     32 CA         25.2125   -2.8518    0.0606 C.3       2 UNK         0.0209 
     33 CB         25.0273   -3.8135    1.2461 C.3       2 UNK        -0.1931 
     34 N          25.3578   -3.6320   -1.1744 N.am      2 UNK        -0.4546 
     35 C          25.7844   -3.1099   -2.3311 C.2       1 UNK         0.5154 
     36 O          26.0912   -1.9235   -2.4574 O.2       1 UNK        -0.5181 
     37 C          26.6984    0.2444   -6.1853 C.2       5 UNK         0.5014 
     38 O          27.3578    0.9392   -6.9606 O.2       5 UNK        -0.5248 
     39 N          25.8382   -0.7046   -6.5917 N.am      6 UNK        -0.4434 
     40 CA         25.5209   -1.0349   -7.9899 C.3       6 UNK         0.0363 
     41 CB         24.4125   -2.0982   -8.0221 C.3       6 UNK        -0.1936 
     42 C          26.7191   -1.4832   -8.8518 C.2       6 UNK         0.5081 
     43 O          26.6134   -1.4703  -10.0784 O.2       6 UNK        -0.5248 
     44 N          27.8415   -1.8376   -8.2102 N.am      7 UNK        -0.4718 
     45 CA         29.1443   -2.0630   -8.8422 C.3       7 UNK         0.0273 
     46 CB         30.0865   -2.6951   -7.8059 C.3       7 UNK        -0.1935 
     47 C          29.7636   -0.7866   -9.4589 C.2       7 UNK         0.5018 
     48 O          30.6304   -0.9079  -10.3261 O.2       7 UNK        -0.5186 
     49 N          29.2831    0.3950   -9.0347 N.am      8 UNK        -0.4240 
     50 CA         29.5801    1.7362   -9.5500 C.3       8 UNK         0.0235 
     51 CB         29.1246    1.8560  -11.0229 C.3       8 UNK        -0.2000 
     52 C          31.0398    2.1789   -9.3339 C.2       8 UNK         0.4941 
     53 O          31.7780    1.5551   -8.5689 O.2       8 UNK        -0.5273 
     54 N          31.4329    3.2697  -10.0100 N.am      9 UNK        -0.4262 
     55 CA         32.7665    3.8831   -9.9464 C.3       9 UNK         0.0264 
     56 CB         32.7749    5.1707  -10.7858 C.3       9 UNK        -0.1955 
     57 C          33.9120    2.9509  -10.3809 C.2       9 UNK         0.5031 
     58 O          35.0383    3.1213   -9.9119 O.2       9 UNK        -0.5390 
     59 N          33.5978    1.9522  -11.2191 N.am      10 UNK        -0.4204 
     60 CA         34.4902    0.8587  -11.6134 C.3       10 UNK         0.0237 
     61 CB         33.7819   -0.0120  -12.6640 C.3       10 UNK        -0.1985 
     62 C          34.9706   -0.0080  -10.4323 C.2       10 UNK         0.4970 
     63 O          36.0293   -0.6277  -10.5424 O.2       10 UNK        -0.4914 
     64 N          34.2097   -0.0223   -9.3288 N.am      11 UNK        -0.4285 
     65 CA         34.5909   -0.6463   -8.0564 C.3       11 UNK         0.1007 
     66 C          35.6479    0.1591   -7.2405 C.2       11 UNK         0.5703 
     67 N          35.9925    1.3887   -7.6103 N.am      11 UNK        -0.7361 
     68 O          36.1844   -0.3474   -6.2586 O.2       11 UNK        -0.4986 
     69 C69        33.3293   -0.9863   -7.2163 C.3       12 UNK        -0.0947 
     70 S70        33.4982   -2.5601   -6.3152 S.3       12 UNK        -0.2240 
     71 C71        33.5225   -1.9907   -4.5889 C.3       12 UNK         0.0194 
     72 H72        21.7120   -2.7018   -5.2434 H         1 UNK         0.0906 
     73 H73        21.9085   -4.3525   -4.6530 H         1 UNK         0.0906 
     74 H74        22.4900   -3.9111   -6.2644 H         1 UNK         0.0906 
     75 H75        24.1063   -5.1113   -4.1790 H         1 UNK         0.3140 
     76 H76        26.0201   -5.0589   -3.1574 H         1 UNK         0.1085 
     77 H77        27.1980   -2.6562   -4.5861 H         1 UNK         0.0836 
     78 H78        26.5896   -3.9253   -5.5857 H         1 UNK         0.0836 
     79 H79        28.4701   -3.7238   -2.1041 H         1 UNK         0.0731 
     80 H80        29.8711   -4.6948   -2.4095 H         1 UNK         0.0731 
     81 H81        31.6407   -3.8703   -4.0594 H         1 UNK         0.1312 
     82 H82        32.3293    0.3493   -3.8269 H         1 UNK         0.1406 
     83 H83        28.6683   -1.3184   -2.3242 H         1 UNK         0.1631 
     84 H84        30.5398    1.8409   -3.1902 H         1 UNK         0.0717 
     85 H85        30.4681    1.2089   -1.5666 H         1 UNK         0.0717 
     86 H86        27.4304    2.5351   -4.4817 H         1 UNK         0.0934 
     87 H87        28.7604    1.4726   -4.8498 H         1 UNK         0.0934 
     88 H88        27.2894   -0.5049   -4.3113 H         1 UNK         0.0739 
     89 H89        25.3057   -0.2810   -3.4282 H         1 UNK         0.3093 
     90 H90        23.0143    2.2022   -3.0919 H         1 UNK         0.0818 
     91 H91        21.1442    1.2028   -4.4140 H         1 UNK         0.0819 
     92 H92        22.3027    0.3247   -5.4127 H         1 UNK         0.0819 
     93 H93        22.2376    2.0816   -5.4659 H         1 UNK         0.0819 
     94 H94        23.4286   -0.7493   -3.1218 H         1 UNK         0.3041 
     95 H95        21.4961   -1.0094   -0.0679 H         1 UNK         0.0784 
     96 H96        19.9257   -1.4126   -1.9580 H         1 UNK         0.0793 
     97 H97        21.1761   -2.2731   -2.8413 H         1 UNK         0.0793 
     98 H98        20.5533   -2.9247   -1.3254 H         1 UNK         0.0793 
     99 H99        23.1607   -2.8841   -1.4623 H         1 UNK         0.3024 
    100 H100       26.1342   -2.2859    0.2176 H         1 UNK         0.1171 
    101 H101       24.9445   -3.2639    2.1850 H         1 UNK         0.0786 
    102 H102       24.1243   -4.4162    1.1412 H         1 UNK         0.0786 
    103 H103       25.8756   -4.4911    1.3444 H         1 UNK         0.0786 
    104 H104       25.1023   -4.6088   -1.1322 H         1 UNK         0.2977 
    105 H105       25.2951   -1.1942   -5.8821 H         1 UNK         0.3127 
    106 H106       25.1297   -0.1250   -8.4494 H         1 UNK         0.0770 
    107 H107       24.7363   -3.0290   -7.5555 H         1 UNK         0.0814 
    108 H108       24.1227   -2.3319   -9.0475 H         1 UNK         0.0814 
    109 H109       23.5164   -1.7513   -7.5074 H         1 UNK         0.0814 
    110 H110       27.8266   -1.8302   -7.2017 H         1 UNK         0.2983 
    111 H111       29.0011   -2.7768   -9.6563 H         1 UNK         0.0947 
    112 H112       30.2984   -2.0142   -6.9800 H         1 UNK         0.0806 
    113 H113       31.0386   -2.9653   -8.2638 H         1 UNK         0.0806 
    114 H114       29.6649   -3.6083   -7.3851 H         1 UNK         0.0806 
    115 H115       28.5978    0.3846   -8.2829 H         1 UNK         0.3000 
    116 H116       28.9680    2.4160   -8.9553 H         1 UNK         0.0850 
    117 H117       29.1059    2.8930  -11.3586 H         1 UNK         0.0810 
    118 H118       28.1141    1.4675  -11.1532 H         1 UNK         0.0810 
    119 H119       29.7794    1.3021  -11.6968 H         1 UNK         0.0810 
    120 H120       30.7592    3.7284  -10.6066 H         1 UNK         0.3040 
    121 H121       32.9509    4.1521   -8.9042 H         1 UNK         0.0766 
    122 H122       33.7478    5.6621  -10.7364 H         1 UNK         0.0812 
    123 H123       32.0359    5.8863  -10.4247 H         1 UNK         0.0812 
    124 H124       32.5648    4.9701  -11.8372 H         1 UNK         0.0812 
    125 H125       32.6432    1.8933  -11.5420 H         1 UNK         0.3205 
    126 H126       35.3757    1.3038  -12.0718 H         1 UNK         0.0754 
    127 H127       32.8729   -0.4649  -12.2647 H         1 UNK         0.0769 
    128 H128       34.4295   -0.8230  -13.0003 H         1 UNK         0.0769 
    129 H129       33.5100    0.5693  -13.5454 H         1 UNK         0.0769 
    130 H130       33.3549    0.5247   -9.3021 H         1 UNK         0.2981 
    131 H131       35.0807   -1.5860   -8.3185 H         1 UNK         0.0541 
    132 H132       35.5820    1.8321   -8.4240 H         1 UNK         0.3459 
    133 H133       36.6841    1.8833   -7.0703 H         1 UNK         0.3459 
    134 H134       32.4661   -1.1037   -7.8709 H         1 UNK         0.0612 
    135 H135       33.0622   -0.1737   -6.5380 H         1 UNK         0.0612 
    136 H136       34.0301   -2.7443   -3.9854 H         1 UNK         0.0624 
    137 H137       34.1236   -1.0840   -4.5069 H         1 UNK         0.0624 
@<TRIPOS>BOND
     1    1    2 1    
     2    1   72 1    
     3    1   73 1    
     4    1   74 1    
     5    2    3 2    
     6    2    4 am   BACKBONE|DICT|INTERRES
     7    4    5 1    
     8    4   75 1    
     9    5    6 1    
    10    5   35 1    
    11    5   76 1    
    12    6    7 1    
    13    6   77 1    
    14    6   78 1    
    15    7    8 1    
    16    8    9 1    
    17    8   79 1    
    18    8   80 1    
    19    9   10 ar   
    20    9   14 ar   
    21   10   11 ar   
    22   10   81 1    
    23   11   12 ar   
    24   11   71 1    
    25   12   13 ar   
    26   12   82 1    
    27   13   14 ar   
    28   13   15 1    
    29   14   83 1    
    30   15   16 1    
    31   15   84 1    
    32   15   85 1    
    33   16   17 1    
    34   17   18 1    
    35   17   86 1    
    36   17   87 1    
    37   18   19 1    
    38   18   37 1    
    39   18   88 1    
    40   19   20 am   BACKBONE|DICT|INTERRES
    41   19   89 1    
    42   20   21 2    
    43   20   22 1    
    44   22   23 1    
    45   22   24 1    
    46   22   90 1    
    47   23   91 1    
    48   23   92 1    
    49   23   93 1    
    50   24   25 am   BACKBONE|DICT|INTERRES
    51   24   94 1    
    52   25   26 2    
    53   25   27 1    
    54   27   28 1    
    55   27   29 1    
    56   27   95 1    
    57   28   96 1    
    58   28   97 1    
    59   28   98 1    
    60   29   30 am   BACKBONE|DICT|INTERRES
    61   29   99 1    
    62   30   31 2    
    63   30   32 1    
    64   32   33 1    
    65   32   34 1    
    66   32  100 1    
    67   33  101 1    
    68   33  102 1    
    69   33  103 1    
    70   34   35 am   BACKBONE|DICT|INTERRES
    71   34  104 1    
    72   35   36 2    
    73   37   38 2    
    74   37   39 am   BACKBONE|DICT|INTERRES
    75   39   40 1    
    76   39  105 1    
    77   40   41 1    
    78   40   42 1    
    79   40  106 1    
    80   41  107 1    
    81   41  108 1    
    82   41  109 1    
    83   42   43 2    
    84   42   44 am   BACKBONE|DICT|INTERRES
    85   44   45 1    
    86   44  110 1    
    87   45   46 1    
    88   45   47 1    
    89   45  111 1    
    90   46  112 1    
    91   46  113 1    
    92   46  114 1    
    93   47   48 2    
    94   47   49 am   BACKBONE|DICT|INTERRES
    95   49   50 1    
    96   49  115 1    
    97   50   51 1    
    98   50   52 1    
    99   50  116 1    
   100   51  117 1    
   101   51  118 1    
   102   51  119 1    
   103   52   53 2    
   104   52   54 am   BACKBONE|DICT|INTERRES
   105   54   55 1    
   106   54  120 1    
   107   55   56 1    
   108   55   57 1    
   109   55  121 1    
   110   56  122 1    
   111   56  123 1    
   112   56  124 1    
   113   57   58 2    
   114   57   59 am   BACKBONE|DICT|INTERRES
   115   59   60 1    
   116   59  125 1    
   117   60   61 1    
   118   60   62 1    
   119   60  126 1    
   120   61  127 1    
   121   61  128 1    
   122   61  129 1    
   123   62   63 2    
   124   62   64 am   BACKBONE|DICT|INTERRES
   125   64   65 1    
   126   64  130 1    
   127   65   66 1    
   128   65   69 1    
   129   65  131 1    
   130   66   67 am   BACKBONE|DICT|INTERRES
   131   66   68 2    
   132   67  132 1    
   133   67  133 1    
   134   69   70 1    
   135   69  134 1    
   136   69  135 1    
   137   70   71 1    
   138   71  136 1    
   139   71  137 1    
@<TRIPOS>SUBSTRUCTURE
     1 UNK         1 GROUP             0       ****    0 ROOT    
