@<TRIPOS>MOLECULE
3R137
137   139    1
SMALL
USER_CHARGES


@<TRIPOS>ATOM
      1 CA         24.2187   -5.8650   -5.1780 C.3       0 UNK        -0.2020 
      2 C          24.6228   -5.2534   -3.8457 C.2       0 UNK         0.4855 
      3 O          23.7635   -4.7624   -3.1126 O.2       0 UNK        -0.5197 
      4 N          25.9254   -5.2652   -3.5318 N.am      1 UNK        -0.4892 
      5 CA         26.5237   -4.6622   -2.3353 C.3       1 UNK         0.0835 
      6 C6         28.0404   -4.9801   -2.2164 C.3       12 UNK        -0.0855 
      7 S7         29.0200   -4.6927   -3.7403 S.3       12 UNK        -0.2931 
      8 C8         30.6978   -4.4549   -3.0698 C.3       12 UNK         0.0378 
      9 C9         31.1304   -2.9926   -3.0688 C.ar      12 UNK        -0.0802 
     10 C10        32.1701   -2.5669   -3.9050 C.ar      12 UNK        -0.0944 
     11 C11        32.6177   -1.2422   -3.8655 C.ar      12 UNK        -0.0787 
     12 C12        32.0114   -0.3387   -2.9899 C.ar      12 UNK        -0.0862 
     13 C13        30.9577   -0.7428   -2.1668 C.ar      12 UNK        -0.0733 
     14 C14        30.5247   -2.0726   -2.2056 C.ar      12 UNK        -0.0832 
     15 C15        30.3077    0.2606   -1.2250 C.3       12 UNK         0.0240 
     16 S16        29.4059    1.5633   -2.1257 S.3       12 UNK        -0.2522 
     17 C17        27.9950    0.6352   -2.8120 C.3       12 UNK        -0.0967 
     18 CA         27.8628    0.7627   -4.3513 C.3       5 UNK         0.0660 
     19 N          27.0896   -0.3540   -4.9115 N.am      5 UNK        -0.4015 
     20 C          26.7191   -0.5293   -6.1893 C.2       4 UNK         0.4946 
     21 O          27.0147    0.2394   -7.1022 O.2       4 UNK        -0.5353 
     22 CA         25.8197   -1.7354   -6.4950 C.3       4 UNK         0.0277 
     23 CB         26.6309   -3.0377   -6.5813 C.3       4 UNK        -0.1981 
     24 N          24.7705   -1.8651   -5.4849 N.am      4 UNK        -0.4209 
     25 C          23.6393   -1.1451   -5.4807 C.2       3 UNK         0.4942 
     26 O          23.3130   -0.3770   -6.3855 O.2       3 UNK        -0.5208 
     27 CA         22.7213   -1.2860   -4.2541 C.3       3 UNK         0.0250 
     28 CB         21.6373   -2.3456   -4.5078 C.3       3 UNK        -0.1990 
     29 N          23.4517   -1.6111   -3.0256 N.am      3 UNK        -0.4232 
     30 C          24.2626   -0.7537   -2.3867 C.2       2 UNK         0.4993 
     31 O          24.4629    0.4036   -2.7590 O.2       2 UNK        -0.5286 
     32 CA         25.0242   -1.2946   -1.1602 C.3       2 UNK         0.0209 
     33 CB         24.1718   -1.1455    0.1096 C.3       2 UNK        -0.1931 
     34 N          25.4640   -2.6901   -1.2958 N.am      2 UNK        -0.4546 
     35 C          26.2383   -3.1489   -2.2894 C.2       1 UNK         0.5154 
     36 O          26.6683   -2.4306   -3.1900 O.2       1 UNK        -0.5181 
     37 C          27.2837    2.1381   -4.7423 C.2       5 UNK         0.5014 
     38 O          28.0400    3.0273   -5.1348 O.2       5 UNK        -0.5248 
     39 N          25.9479    2.2610   -4.7049 N.am      6 UNK        -0.4434 
     40 CA         25.1858    3.4304   -5.1572 C.3       6 UNK         0.0363 
     41 CB         23.6934    3.1816   -4.8862 C.3       6 UNK        -0.1936 
     42 C          25.4032    3.8172   -6.6366 C.2       6 UNK         0.5081 
     43 O          25.1880    4.9783   -6.9852 O.2       6 UNK        -0.5248 
     44 N          25.8317    2.8611   -7.4712 N.am      7 UNK        -0.4718 
     45 CA         26.1819    3.0472   -8.8813 C.3       7 UNK         0.0273 
     46 CB         25.3912    2.0206   -9.7128 C.3       7 UNK        -0.1935 
     47 C          27.6993    2.9055   -9.1237 C.2       7 UNK         0.5018 
     48 O          28.1115    2.8379  -10.2823 O.2       7 UNK        -0.5186 
     49 N          28.4989    2.8465   -8.0455 N.am      8 UNK        -0.4240 
     50 CA         29.9511    2.6216   -8.0092 C.3       8 UNK         0.0235 
     51 CB         30.7137    3.7779   -8.6907 C.3       8 UNK        -0.2000 
     52 C          30.3928    1.2317   -8.5168 C.2       8 UNK         0.4941 
     53 O          31.5488    1.0849   -8.9227 O.2       8 UNK        -0.5273 
     54 N          29.4804    0.2451   -8.4505 N.am      9 UNK        -0.4262 
     55 CA         29.6257   -1.1843   -8.7582 C.3       9 UNK         0.0264 
     56 CB         30.0990   -1.9317   -7.4889 C.3       9 UNK        -0.1955 
     57 C          30.4928   -1.4509  -10.0044 C.2       9 UNK         0.5031 
     58 O          30.0662   -1.1523  -11.1215 O.2       9 UNK        -0.5390 
     59 N          31.7059   -1.9571   -9.7721 N.am      10 UNK        -0.4204 
     60 CA         32.8225   -1.9730  -10.7096 C.3       10 UNK         0.0237 
     61 CB         32.8658   -3.3203  -11.4570 C.3       10 UNK        -0.1985 
     62 C          34.1033   -1.6658   -9.9154 C.2       10 UNK         0.4970 
     63 O          35.1009   -2.3741  -10.0637 O.2       10 UNK        -0.4914 
     64 N          34.0288   -0.6586   -9.0318 N.am      11 UNK        -0.4285 
     65 CA         35.0993   -0.2853   -8.0938 C.3       11 UNK         0.1007 
     66 C          36.3721    0.2531   -8.8039 C.2       11 UNK         0.5703 
     67 N          37.5467    0.0143   -8.2359 N.am      11 UNK        -0.7361 
     68 O          36.3024    0.9175   -9.8368 O.2       11 UNK        -0.4986 
     69 C69        34.6110    0.7211   -7.0175 C.3       12 UNK        -0.0947 
     70 S70        33.0961    0.1944   -6.1507 S.3       12 UNK        -0.2240 
     71 C71        33.7525   -0.7729   -4.7635 C.3       12 UNK         0.0194 
     72 H72        25.0728   -6.2819   -5.7114 H         1 UNK         0.0906 
     73 H73        23.4952   -6.6640   -5.0190 H         1 UNK         0.0906 
     74 H74        23.7576   -5.1089   -5.8128 H         1 UNK         0.0906 
     75 H75        26.5954   -5.6453   -4.1862 H         1 UNK         0.3140 
     76 H76        26.0301   -5.1168   -1.4737 H         1 UNK         0.1085 
     77 H77        28.4784   -4.4254   -1.3849 H         1 UNK         0.0836 
     78 H78        28.1609   -6.0323   -1.9537 H         1 UNK         0.0836 
     79 H79        31.3872   -5.0509   -3.6696 H         1 UNK         0.0731 
     80 H80        30.7638   -4.8564   -2.0577 H         1 UNK         0.0731 
     81 H81        32.6412   -3.2694   -4.5788 H         1 UNK         0.1312 
     82 H82        32.3498    0.6883   -2.9610 H         1 UNK         0.1406 
     83 H83        29.7180   -2.3944   -1.5625 H         1 UNK         0.1631 
     84 H84        31.0821    0.7281   -0.6152 H         1 UNK         0.0717 
     85 H85        29.6286   -0.2343   -0.5287 H         1 UNK         0.0717 
     86 H86        28.1197   -0.4119   -2.5386 H         1 UNK         0.0934 
     87 H87        27.0856    0.9640   -2.3070 H         1 UNK         0.0934 
     88 H88        28.8585    0.6854   -4.7938 H         1 UNK         0.0739 
     89 H89        26.8494   -1.0927   -4.2493 H         1 UNK         0.3093 
     90 H90        25.3539   -1.5681   -7.4689 H         1 UNK         0.0818 
     91 H91        27.1864   -3.2376   -5.6652 H         1 UNK         0.0819 
     92 H92        25.9860   -3.8940   -6.7761 H         1 UNK         0.0819 
     93 H93        27.3526   -2.9916   -7.3963 H         1 UNK         0.0819 
     94 H94        24.9923   -2.4222   -4.6706 H         1 UNK         0.3041 
     95 H95        22.2257   -0.3239   -4.1055 H         1 UNK         0.0784 
     96 H96        21.0452   -2.0927   -5.3885 H         1 UNK         0.0793 
     97 H97        22.0662   -3.3333   -4.6781 H         1 UNK         0.0793 
     98 H98        20.9488   -2.4192   -3.6658 H         1 UNK         0.0793 
     99 H99        23.3817   -2.5645   -2.6887 H         1 UNK         0.3024 
    100 H100       25.9193   -0.6825   -1.0386 H         1 UNK         0.1171 
    101 H101       23.8488   -0.1119    0.2434 H         1 UNK         0.0786 
    102 H102       24.7342   -1.4241    1.0010 H         1 UNK         0.0786 
    103 H103       23.2746   -1.7648    0.0701 H         1 UNK         0.0786 
    104 H104       25.1123   -3.3426   -0.6093 H         1 UNK         0.2977 
    105 H105       25.4080    1.4950   -4.3148 H         1 UNK         0.3127 
    106 H106       25.5082    4.2801   -4.5522 H         1 UNK         0.0770 
    107 H107       23.3213    2.3239   -5.4481 H         1 UNK         0.0814 
    108 H108       23.0932    4.0461   -5.1735 H         1 UNK         0.0814 
    109 H109       23.5066    2.9951   -3.8283 H         1 UNK         0.0814 
    110 H110       26.0171    1.9321   -7.1031 H         1 UNK         0.2983 
    111 H111       25.9012    4.0480   -9.2157 H         1 UNK         0.0947 
    112 H112       25.5710    2.1540  -10.7803 H         1 UNK         0.0806 
    113 H113       24.3179    2.1233   -9.5519 H         1 UNK         0.0806 
    114 H114       25.6710    0.9973   -9.4589 H         1 UNK         0.0806 
    115 H115       28.0634    2.9231   -7.1309 H         1 UNK         0.3000 
    116 H116       30.2206    2.6380   -6.9520 H         1 UNK         0.0850 
    117 H117       31.7869    3.6952   -8.5142 H         1 UNK         0.0810 
    118 H118       30.3973    4.7459   -8.3026 H         1 UNK         0.0810 
    119 H119       30.5635    3.7812   -9.7705 H         1 UNK         0.0810 
    120 H120       28.5611    0.4923   -8.0894 H         1 UNK         0.3040 
    121 H121       28.6255   -1.5451   -9.0017 H         1 UNK         0.0766 
    122 H122       29.4125   -1.7735   -6.6577 H         1 UNK         0.0812 
    123 H123       31.0790   -1.5976   -7.1519 H         1 UNK         0.0812 
    124 H124       30.1497   -3.0084   -7.6565 H         1 UNK         0.0812 
    125 H125       31.9502   -2.1554   -8.8114 H         1 UNK         0.3205 
    126 H126       32.7030   -1.1685  -11.4387 H         1 UNK         0.0754 
    127 H127       33.6843   -3.3423  -12.1776 H         1 UNK         0.0769 
    128 H128       31.9429   -3.4944  -12.0106 H         1 UNK         0.0769 
    129 H129       33.0078   -4.1564  -10.7712 H         1 UNK         0.0769 
    130 H130       33.1862   -0.0909   -8.9885 H         1 UNK         0.2981 
    131 H131       35.3831   -1.2030   -7.5749 H         1 UNK         0.0541 
    132 H132       38.3827    0.3687   -8.6738 H         1 UNK         0.3459 
    133 H133       37.6162   -0.5183   -7.3829 H         1 UNK         0.3459 
    134 H134       35.3922    0.9046   -6.2777 H         1 UNK         0.0612 
    135 H135       34.3971    1.6871   -7.4789 H         1 UNK         0.0612 
    136 H136       34.4499   -0.1621   -4.1883 H         1 UNK         0.0624 
    137 H137       34.3189   -1.6217   -5.1494 H         1 UNK         0.0624 
@<TRIPOS>BOND
     1    1    2 1    
     2    1   72 1    
     3    1   73 1    
     4    1   74 1    
     5    2    3 2    
     6    2    4 am   BACKBONE|DICT|INTERRES
     7    4    5 1    
     8    4   75 1    
     9    5    6 1    
    10    5   35 1    
    11    5   76 1    
    12    6    7 1    
    13    6   77 1    
    14    6   78 1    
    15    7    8 1    
    16    8    9 1    
    17    8   79 1    
    18    8   80 1    
    19    9   10 ar   
    20    9   14 ar   
    21   10   11 ar   
    22   10   81 1    
    23   11   12 ar   
    24   11   71 1    
    25   12   13 ar   
    26   12   82 1    
    27   13   14 ar   
    28   13   15 1    
    29   14   83 1    
    30   15   16 1    
    31   15   84 1    
    32   15   85 1    
    33   16   17 1    
    34   17   18 1    
    35   17   86 1    
    36   17   87 1    
    37   18   19 1    
    38   18   37 1    
    39   18   88 1    
    40   19   20 am   BACKBONE|DICT|INTERRES
    41   19   89 1    
    42   20   21 2    
    43   20   22 1    
    44   22   23 1    
    45   22   24 1    
    46   22   90 1    
    47   23   91 1    
    48   23   92 1    
    49   23   93 1    
    50   24   25 am   BACKBONE|DICT|INTERRES
    51   24   94 1    
    52   25   26 2    
    53   25   27 1    
    54   27   28 1    
    55   27   29 1    
    56   27   95 1    
    57   28   96 1    
    58   28   97 1    
    59   28   98 1    
    60   29   30 am   BACKBONE|DICT|INTERRES
    61   29   99 1    
    62   30   31 2    
    63   30   32 1    
    64   32   33 1    
    65   32   34 1    
    66   32  100 1    
    67   33  101 1    
    68   33  102 1    
    69   33  103 1    
    70   34   35 am   BACKBONE|DICT|INTERRES
    71   34  104 1    
    72   35   36 2    
    73   37   38 2    
    74   37   39 am   BACKBONE|DICT|INTERRES
    75   39   40 1    
    76   39  105 1    
    77   40   41 1    
    78   40   42 1    
    79   40  106 1    
    80   41  107 1    
    81   41  108 1    
    82   41  109 1    
    83   42   43 2    
    84   42   44 am   BACKBONE|DICT|INTERRES
    85   44   45 1    
    86   44  110 1    
    87   45   46 1    
    88   45   47 1    
    89   45  111 1    
    90   46  112 1    
    91   46  113 1    
    92   46  114 1    
    93   47   48 2    
    94   47   49 am   BACKBONE|DICT|INTERRES
    95   49   50 1    
    96   49  115 1    
    97   50   51 1    
    98   50   52 1    
    99   50  116 1    
   100   51  117 1    
   101   51  118 1    
   102   51  119 1    
   103   52   53 2    
   104   52   54 am   BACKBONE|DICT|INTERRES
   105   54   55 1    
   106   54  120 1    
   107   55   56 1    
   108   55   57 1    
   109   55  121 1    
   110   56  122 1    
   111   56  123 1    
   112   56  124 1    
   113   57   58 2    
   114   57   59 am   BACKBONE|DICT|INTERRES
   115   59   60 1    
   116   59  125 1    
   117   60   61 1    
   118   60   62 1    
   119   60  126 1    
   120   61  127 1    
   121   61  128 1    
   122   61  129 1    
   123   62   63 2    
   124   62   64 am   BACKBONE|DICT|INTERRES
   125   64   65 1    
   126   64  130 1    
   127   65   66 1    
   128   65   69 1    
   129   65  131 1    
   130   66   67 am   BACKBONE|DICT|INTERRES
   131   66   68 2    
   132   67  132 1    
   133   67  133 1    
   134   69   70 1    
   135   69  134 1    
   136   69  135 1    
   137   70   71 1    
   138   71  136 1    
   139   71  137 1    
@<TRIPOS>SUBSTRUCTURE
     1 UNK         1 GROUP             0       ****    0 ROOT    
