@<TRIPOS>MOLECULE
3R137
137   139    1
SMALL
USER_CHARGES


@<TRIPOS>ATOM
      1 CA         30.1759   -4.7088   -5.2423 C.3       0 UNK        -0.2020 
      2 C          28.7698   -4.6481   -4.6719 C.2       0 UNK         0.4855 
      3 O          27.8068   -4.9885   -5.3591 O.2       0 UNK        -0.5197 
      4 N          28.6448   -4.2202   -3.4110 N.am      1 UNK        -0.4892 
      5 CA         27.3696   -4.1004   -2.6967 C.3       1 UNK         0.0835 
      6 C6         27.5586   -3.9118   -1.1701 C.3       12 UNK        -0.0855 
      7 S7         28.7427   -5.1053   -0.4517 S.3       12 UNK        -0.2931 
      8 C8         30.0306   -4.0152    0.2416 C.3       12 UNK         0.0378 
      9 C9         30.6888   -3.1139   -0.7988 C.ar      12 UNK        -0.0802 
     10 C10        31.6592   -3.6211   -1.6687 C.ar      12 UNK        -0.0944 
     11 C11        32.3184   -2.7863   -2.5789 C.ar      12 UNK        -0.0787 
     12 C12        31.9721   -1.4276   -2.6139 C.ar      12 UNK        -0.0862 
     13 C13        30.9957   -0.9002   -1.7599 C.ar      12 UNK        -0.0733 
     14 C14        30.3627   -1.7555   -0.8509 C.ar      12 UNK        -0.0832 
     15 C15        30.7059    0.6027   -1.8375 C.3       12 UNK         0.0240 
     16 S16        29.4366    1.2701   -0.6944 S.3       12 UNK        -0.2522 
     17 C17        27.8479    0.8965   -1.5189 C.3       12 UNK        -0.0967 
     18 CA         27.7001    1.6117   -2.8941 C.3       5 UNK         0.0660 
     19 N          27.9576    0.6796   -3.9906 N.am      5 UNK        -0.4015 
     20 C          28.4877    1.0128   -5.1702 C.2       4 UNK         0.4946 
     21 O          28.6732    2.1721   -5.5311 O.2       4 UNK        -0.5353 
     22 CA         28.8854   -0.1448   -6.0877 C.3       4 UNK         0.0277 
     23 CB         30.0124   -0.9557   -5.4422 C.3       4 UNK        -0.1981 
     24 N          27.7561   -1.0353   -6.3290 N.am      4 UNK        -0.4209 
     25 C          27.1485   -1.2030   -7.5086 C.2       3 UNK         0.4942 
     26 O          27.4947   -0.6216   -8.5367 O.2       3 UNK        -0.5208 
     27 CA         25.9680   -2.1917   -7.5714 C.3       3 UNK         0.0250 
     28 CB         26.3958   -3.4875   -8.2772 C.3       3 UNK        -0.1990 
     29 N          25.3909   -2.5112   -6.2625 N.am      3 UNK        -0.4232 
     30 C          24.7682   -1.6236   -5.4728 C.2       2 UNK         0.4993 
     31 O          24.5903   -0.4460   -5.7853 O.2       2 UNK        -0.5286 
     32 CA         24.3520   -2.1029   -4.0697 C.3       2 UNK         0.0209 
     33 CB         22.9109   -2.6350   -4.0898 C.3       2 UNK        -0.1931 
     34 N          25.2476   -3.1178   -3.4932 N.am      2 UNK        -0.4546 
     35 C          26.5592   -2.9335   -3.2867 C.2       1 UNK         0.5154 
     36 O          27.1439   -1.8828   -3.5611 O.2       1 UNK        -0.5181 
     37 C          26.3733    2.3872   -3.0558 C.2       5 UNK         0.5014 
     38 O          26.1227    3.2905   -2.2555 O.2       5 UNK        -0.5248 
     39 N          25.5693    2.0716   -4.0828 N.am      6 UNK        -0.4434 
     40 CA         24.4101    2.8643   -4.4945 C.3       6 UNK         0.0363 
     41 CB         23.0990    2.1390   -4.1427 C.3       6 UNK        -0.1936 
     42 C          24.4944    3.2110   -5.9878 C.2       6 UNK         0.5081 
     43 O          24.4355    4.3926   -6.3287 O.2       6 UNK        -0.5248 
     44 N          24.6259    2.1968   -6.8568 N.am      7 UNK        -0.4718 
     45 CA         24.5807    2.3769   -8.3154 C.3       7 UNK         0.0273 
     46 CB         24.1945    1.0514   -8.9873 C.3       7 UNK        -0.1935 
     47 C          25.8773    2.9282   -8.9383 C.2       7 UNK         0.5018 
     48 O          25.8076    3.4978  -10.0280 O.2       7 UNK        -0.5186 
     49 N          27.0212    2.7469   -8.2592 N.am      8 UNK        -0.4240 
     50 CA         28.3674    3.1884   -8.6597 C.3       8 UNK         0.0235 
     51 CB         28.4664    4.7287   -8.6158 C.3       8 UNK        -0.2000 
     52 C          28.8684    2.5909   -9.9917 C.2       8 UNK         0.4941 
     53 O          29.6004    3.2614  -10.7230 O.2       8 UNK        -0.5273 
     54 N          28.4815    1.3421  -10.2802 N.am      9 UNK        -0.4262 
     55 CA         28.9014    0.5900  -11.4629 C.3       9 UNK         0.0264 
     56 CB         27.6920   -0.1710  -12.0330 C.3       9 UNK        -0.1955 
     57 C          30.0436   -0.3834  -11.1325 C.2       9 UNK         0.5031 
     58 O          30.9969   -0.4789  -11.9073 O.2       9 UNK        -0.5390 
     59 N          29.9222   -1.0965  -10.0057 N.am      10 UNK        -0.4204 
     60 CA         30.8830   -2.0976   -9.5357 C.3       10 UNK         0.0237 
     61 CB         30.0981   -3.2509   -8.8853 C.3       10 UNK        -0.1985 
     62 C          31.9060   -1.4959   -8.5547 C.2       10 UNK         0.4970 
     63 O          31.7772   -0.3355   -8.1594 O.2       10 UNK        -0.4914 
     64 N          32.8910   -2.3187   -8.1623 N.am      11 UNK        -0.4285 
     65 CA         33.9621   -2.0034   -7.1946 C.3       11 UNK         0.1007 
     66 C          35.0013   -0.9492   -7.6930 C.2       11 UNK         0.5703 
     67 N          35.0817   -0.6667   -8.9882 N.am      11 UNK        -0.7361 
     68 O          35.7699   -0.3984   -6.9086 O.2       11 UNK        -0.4986 
     69 C69        33.3990   -1.7046   -5.7718 C.3       12 UNK        -0.0947 
     70 S70        34.4764   -2.2394   -4.3974 S.3       12 UNK        -0.2240 
     71 C71        33.4029   -3.4036   -3.4752 C.3       12 UNK         0.0194 
     72 H72        30.7457   -3.8278   -4.9556 H         1 UNK         0.0906 
     73 H73        30.6948   -5.5937   -4.8751 H         1 UNK         0.0906 
     74 H74        30.1475   -4.7581   -6.3293 H         1 UNK         0.0906 
     75 H75        29.4603   -3.9399   -2.8832 H         1 UNK         0.3140 
     76 H76        26.8151   -5.0276   -2.8586 H         1 UNK         0.1085 
     77 H77        26.6025   -4.0406   -0.6593 H         1 UNK         0.0836 
     78 H78        27.8762   -2.8950   -0.9381 H         1 UNK         0.0836 
     79 H79        30.7948   -4.6349    0.7130 H         1 UNK         0.0731 
     80 H80        29.5934   -3.4190    1.0443 H         1 UNK         0.0731 
     81 H81        31.9188   -4.6702   -1.6186 H         1 UNK         0.1312 
     82 H82        32.4708   -0.7572   -3.2976 H         1 UNK         0.1406 
     83 H83        29.6255   -1.3697   -0.1620 H         1 UNK         0.1631 
     84 H84        30.4554    0.8717   -2.8625 H         1 UNK         0.0717 
     85 H85        31.6367    1.1265   -1.6159 H         1 UNK         0.0717 
     86 H86        27.7419   -0.1854   -1.6081 H         1 UNK         0.0934 
     87 H87        27.0629    1.1988   -0.8228 H         1 UNK         0.0934 
     88 H88        28.4594    2.3952   -2.9496 H         1 UNK         0.0739 
     89 H89        27.7737   -0.3038   -3.7877 H         1 UNK         0.3093 
     90 H90        29.2608    0.2778   -7.0222 H         1 UNK         0.0818 
     91 H91        29.7156   -1.4070   -4.4950 H         1 UNK         0.0819 
     92 H92        30.3254   -1.7590   -6.1035 H         1 UNK         0.0819 
     93 H93        30.8780   -0.3216   -5.2526 H         1 UNK         0.0819 
     94 H94        27.3991   -1.5385   -5.5238 H         1 UNK         0.3041 
     95 H95        25.1810   -1.7337   -8.1704 H         1 UNK         0.0784 
     96 H96        26.7671   -3.2791   -9.2817 H         1 UNK         0.0793 
     97 H97        27.1918   -4.0000   -7.7370 H         1 UNK         0.0793 
     98 H98        25.5599   -4.1795   -8.3804 H         1 UNK         0.0793 
     99 H99        25.5347   -3.4506   -5.9176 H         1 UNK         0.3024 
    100 H100       24.3837   -1.2282   -3.4158 H         1 UNK         0.1171 
    101 H101       22.5631   -2.8781   -3.0856 H         1 UNK         0.0786 
    102 H102       22.2257   -1.8888   -4.4952 H         1 UNK         0.0786 
    103 H103       22.8185   -3.5310   -4.7049 H         1 UNK         0.0786 
    104 H104       24.8299   -4.0046   -3.2480 H         1 UNK         0.2977 
    105 H105       25.8329    1.3102   -4.6926 H         1 UNK         0.3127 
    106 H106       24.4033    3.8180   -3.9619 H         1 UNK         0.0770 
    107 H107       23.0018    1.1813   -4.6514 H         1 UNK         0.0814 
    108 H108       22.2359    2.7429   -4.4253 H         1 UNK         0.0814 
    109 H109       23.0276    1.9549   -3.0708 H         1 UNK         0.0814 
    110 H110       24.6167    1.2387   -6.5087 H         1 UNK         0.2983 
    111 H111       23.7893    3.0970   -8.5372 H         1 UNK         0.0947 
    112 H112       23.9481    1.2093  -10.0381 H         1 UNK         0.0806 
    113 H113       23.3260    0.5932   -8.5137 H         1 UNK         0.0806 
    114 H114       25.0156    0.3396   -8.9590 H         1 UNK         0.0806 
    115 H115       26.9671    2.2753   -7.3675 H         1 UNK         0.3000 
    116 H116       29.0579    2.8036   -7.9112 H         1 UNK         0.0850 
    117 H117       29.4936    5.0613   -8.7705 H         1 UNK         0.0810 
    118 H118       28.1454    5.1171   -7.6491 H         1 UNK         0.0810 
    119 H119       27.8532    5.1960   -9.3868 H         1 UNK         0.0810 
    120 H120       27.9197    0.8321   -9.6021 H         1 UNK         0.3040 
    121 H121       29.2580    1.2741  -12.2358 H         1 UNK         0.0766 
    122 H122       26.8960    0.5155  -12.3221 H         1 UNK         0.0812 
    123 H123       27.2770   -0.8772  -11.3126 H         1 UNK         0.0812 
    124 H124       27.9715   -0.7373  -12.9224 H         1 UNK         0.0812 
    125 H125       29.1132   -0.9267   -9.4137 H         1 UNK         0.3205 
    126 H126       31.4353   -2.4994  -10.3879 H         1 UNK         0.0754 
    127 H127       30.7580   -4.0681   -8.5937 H         1 UNK         0.0769 
    128 H128       29.3668   -3.6680   -9.5781 H         1 UNK         0.0769 
    129 H129       29.5617   -2.9262   -7.9945 H         1 UNK         0.0769 
    130 H130       32.9315   -3.2471   -8.5575 H         1 UNK         0.2981 
    131 H131       34.5322   -2.9303   -7.1260 H         1 UNK         0.0541 
    132 H132       34.4653   -1.1104   -9.6495 H         1 UNK         0.3459 
    133 H133       35.7614    0.0072   -9.3036 H         1 UNK         0.3459 
    134 H134       32.4557   -2.2294   -5.6428 H         1 UNK         0.0612 
    135 H135       33.1759   -0.6429   -5.6580 H         1 UNK         0.0612 
    136 H136       34.0594   -4.0051   -2.8447 H         1 UNK         0.0624 
    137 H137       32.9463   -4.0998   -4.1784 H         1 UNK         0.0624 
@<TRIPOS>BOND
     1    1    2 1    
     2    1   72 1    
     3    1   73 1    
     4    1   74 1    
     5    2    3 2    
     6    2    4 am   BACKBONE|DICT|INTERRES
     7    4    5 1    
     8    4   75 1    
     9    5    6 1    
    10    5   35 1    
    11    5   76 1    
    12    6    7 1    
    13    6   77 1    
    14    6   78 1    
    15    7    8 1    
    16    8    9 1    
    17    8   79 1    
    18    8   80 1    
    19    9   10 ar   
    20    9   14 ar   
    21   10   11 ar   
    22   10   81 1    
    23   11   12 ar   
    24   11   71 1    
    25   12   13 ar   
    26   12   82 1    
    27   13   14 ar   
    28   13   15 1    
    29   14   83 1    
    30   15   16 1    
    31   15   84 1    
    32   15   85 1    
    33   16   17 1    
    34   17   18 1    
    35   17   86 1    
    36   17   87 1    
    37   18   19 1    
    38   18   37 1    
    39   18   88 1    
    40   19   20 am   BACKBONE|DICT|INTERRES
    41   19   89 1    
    42   20   21 2    
    43   20   22 1    
    44   22   23 1    
    45   22   24 1    
    46   22   90 1    
    47   23   91 1    
    48   23   92 1    
    49   23   93 1    
    50   24   25 am   BACKBONE|DICT|INTERRES
    51   24   94 1    
    52   25   26 2    
    53   25   27 1    
    54   27   28 1    
    55   27   29 1    
    56   27   95 1    
    57   28   96 1    
    58   28   97 1    
    59   28   98 1    
    60   29   30 am   BACKBONE|DICT|INTERRES
    61   29   99 1    
    62   30   31 2    
    63   30   32 1    
    64   32   33 1    
    65   32   34 1    
    66   32  100 1    
    67   33  101 1    
    68   33  102 1    
    69   33  103 1    
    70   34   35 am   BACKBONE|DICT|INTERRES
    71   34  104 1    
    72   35   36 2    
    73   37   38 2    
    74   37   39 am   BACKBONE|DICT|INTERRES
    75   39   40 1    
    76   39  105 1    
    77   40   41 1    
    78   40   42 1    
    79   40  106 1    
    80   41  107 1    
    81   41  108 1    
    82   41  109 1    
    83   42   43 2    
    84   42   44 am   BACKBONE|DICT|INTERRES
    85   44   45 1    
    86   44  110 1    
    87   45   46 1    
    88   45   47 1    
    89   45  111 1    
    90   46  112 1    
    91   46  113 1    
    92   46  114 1    
    93   47   48 2    
    94   47   49 am   BACKBONE|DICT|INTERRES
    95   49   50 1    
    96   49  115 1    
    97   50   51 1    
    98   50   52 1    
    99   50  116 1    
   100   51  117 1    
   101   51  118 1    
   102   51  119 1    
   103   52   53 2    
   104   52   54 am   BACKBONE|DICT|INTERRES
   105   54   55 1    
   106   54  120 1    
   107   55   56 1    
   108   55   57 1    
   109   55  121 1    
   110   56  122 1    
   111   56  123 1    
   112   56  124 1    
   113   57   58 2    
   114   57   59 am   BACKBONE|DICT|INTERRES
   115   59   60 1    
   116   59  125 1    
   117   60   61 1    
   118   60   62 1    
   119   60  126 1    
   120   61  127 1    
   121   61  128 1    
   122   61  129 1    
   123   62   63 2    
   124   62   64 am   BACKBONE|DICT|INTERRES
   125   64   65 1    
   126   64  130 1    
   127   65   66 1    
   128   65   69 1    
   129   65  131 1    
   130   66   67 am   BACKBONE|DICT|INTERRES
   131   66   68 2    
   132   67  132 1    
   133   67  133 1    
   134   69   70 1    
   135   69  134 1    
   136   69  135 1    
   137   70   71 1    
   138   71  136 1    
   139   71  137 1    
@<TRIPOS>SUBSTRUCTURE
     1 UNK         1 GROUP             0       ****    0 ROOT    
