@<TRIPOS>MOLECULE
3R137
137   139    1
SMALL
USER_CHARGES


@<TRIPOS>ATOM
      1 CA         30.2561   -4.8976   -4.6638 C.3       0 UNK        -0.2020 
      2 C          28.9926   -4.7379   -3.8349 C.2       0 UNK         0.4855 
      3 O          27.9939   -5.4074   -4.1014 O.2       0 UNK        -0.5197 
      4 N          29.0347   -3.8609   -2.8258 N.am      1 UNK        -0.4892 
      5 CA         27.9044   -3.5335   -1.9495 C.3       1 UNK         0.0835 
      6 C6         28.3706   -2.8385   -0.6410 C.3       12 UNK        -0.0855 
      7 S7         29.7025   -3.7370    0.2274 S.3       12 UNK        -0.2931 
      8 C8         31.0007   -2.4621    0.3406 C.3       12 UNK         0.0378 
      9 C9         31.5681   -2.0838   -1.0218 C.ar      12 UNK        -0.0802 
     10 C10        32.4776   -2.9313   -1.6598 C.ar      12 UNK        -0.0944 
     11 C11        33.0435   -2.5830   -2.8896 C.ar      12 UNK        -0.0787 
     12 C12        32.6585   -1.3759   -3.4893 C.ar      12 UNK        -0.0862 
     13 C13        31.7503   -0.5116   -2.8688 C.ar      12 UNK        -0.0733 
     14 C14        31.2163   -0.8721   -1.6251 C.ar      12 UNK        -0.0832 
     15 C15        31.4256    0.8134   -3.5663 C.3       12 UNK         0.0240 
     16 S16        29.9674    1.7311   -2.9519 S.3       12 UNK        -0.2522 
     17 C17        28.6065    0.6753   -3.5420 C.3       12 UNK        -0.0967 
     18 CA         28.1806    0.9840   -4.9997 C.3       5 UNK         0.0660 
     19 N          27.5917   -0.1915   -5.6355 N.am      5 UNK        -0.4015 
     20 C          27.3990   -0.3427   -6.9512 C.2       4 UNK         0.4946 
     21 O          27.6107    0.5464   -7.7768 O.2       4 UNK        -0.5353 
     22 CA         26.8746   -1.7056   -7.4245 C.3       4 UNK         0.0277 
     23 CB         28.0133   -2.7358   -7.4777 C.3       4 UNK        -0.1981 
     24 N          25.8218   -2.2013   -6.5377 N.am      4 UNK        -0.4209 
     25 C          24.5162   -2.1999   -6.8371 C.2       3 UNK         0.4942 
     26 O          24.0599   -1.8364   -7.9215 O.2       3 UNK        -0.5208 
     27 CA         23.5392   -2.6837   -5.7481 C.3       3 UNK         0.0250 
     28 CB         23.1991   -4.1683   -5.9572 C.3       3 UNK        -0.1990 
     29 N          24.0051   -2.4870   -4.3713 N.am      3 UNK        -0.4232 
     30 C          24.3067   -1.3027   -3.8221 C.2       2 UNK         0.4993 
     31 O          24.2862   -0.2333   -4.4291 O.2       2 UNK        -0.5286 
     32 CA         24.7783   -1.3172   -2.3608 C.3       2 UNK         0.0209 
     33 CB         23.5751   -1.3841   -1.4066 C.3       2 UNK        -0.1931 
     34 N          25.7404   -2.3742   -2.0180 N.am      2 UNK        -0.4546 
     35 C          26.8743   -2.6457   -2.6819 C.2       1 UNK         0.5154 
     36 O          27.1391   -2.1761   -3.7926 O.2       1 UNK        -0.5181 
     37 C          27.2843    2.2332   -5.1192 C.2       5 UNK         0.5014 
     38 O          27.7879    3.2930   -5.4947 O.2       5 UNK        -0.5248 
     39 N          25.9711    2.0954   -4.8675 N.am      6 UNK        -0.4434 
     40 CA         25.0053    3.1950   -5.0096 C.3       6 UNK         0.0363 
     41 CB         23.7189    2.8778   -4.2304 C.3       6 UNK        -0.1936 
     42 C          24.6814    3.5136   -6.4799 C.2       6 UNK         0.5081 
     43 O          24.2752    4.6361   -6.7798 O.2       6 UNK        -0.5248 
     44 N          24.8954    2.5376   -7.3731 N.am      7 UNK        -0.4718 
     45 CA         24.8031    2.6940   -8.8271 C.3       7 UNK         0.0273 
     46 CB         24.5433    1.3154   -9.4583 C.3       7 UNK        -0.1935 
     47 C          26.0563    3.3483   -9.4437 C.2       7 UNK         0.5018 
     48 O          26.0479    3.6299  -10.6426 O.2       7 UNK        -0.5186 
     49 N          27.1039    3.5625   -8.6304 N.am      8 UNK        -0.4240 
     50 CA         28.4216    4.1031   -8.9823 C.3       8 UNK         0.0235 
     51 CB         28.3140    5.5609   -9.4791 C.3       8 UNK        -0.2000 
     52 C          29.2182    3.1948   -9.9405 C.2       8 UNK         0.4941 
     53 O          30.0413    3.6917  -10.7113 O.2       8 UNK        -0.5273 
     54 N          28.9874    1.8769   -9.8568 N.am      9 UNK        -0.4262 
     55 CA         29.7037    0.8503  -10.6187 C.3       9 UNK         0.0264 
     56 CB         28.7412   -0.3146  -10.9081 C.3       9 UNK        -0.1955 
     57 C          30.9690    0.3507   -9.8940 C.2       9 UNK         0.5031 
     58 O          31.7083   -0.4442  -10.4756 O.2       9 UNK        -0.5390 
     59 N          31.1934    0.8186   -8.6556 N.am      10 UNK        -0.4204 
     60 CA         32.2550    0.4238   -7.7241 C.3       10 UNK         0.0237 
     61 CB         33.6597    0.7451   -8.2865 C.3       10 UNK        -0.1985 
     62 C          32.0617   -1.0309   -7.2560 C.2       10 UNK         0.4970 
     63 O          30.9338   -1.4020   -6.9302 O.2       10 UNK        -0.4914 
     64 N          33.1468   -1.8092   -7.1770 N.am      11 UNK        -0.4285 
     65 CA         33.1150   -3.2332   -6.8155 C.3       11 UNK         0.1007 
     66 C          32.5870   -4.1312   -7.9693 C.2       11 UNK         0.5703 
     67 N          32.1258   -5.3346   -7.6550 N.am      11 UNK        -0.7361 
     68 O          32.6291   -3.7734   -9.1447 O.2       11 UNK        -0.4986 
     69 C69        34.4920   -3.7327   -6.3070 C.3       12 UNK        -0.0947 
     70 S70        35.1005   -2.8256   -4.8462 S.3       12 UNK        -0.2240 
     71 C71        34.0697   -3.5362   -3.5120 C.3       12 UNK         0.0194 
     72 H72        30.5752   -5.9394   -4.6650 H         1 UNK         0.0906 
     73 H73        30.0671   -4.5925   -5.6925 H         1 UNK         0.0906 
     74 H74        31.0706   -4.2915   -4.2706 H         1 UNK         0.0906 
     75 H75        29.8811   -3.3384   -2.6478 H         1 UNK         0.3140 
     76 H76        27.4032   -4.4672   -1.6849 H         1 UNK         0.1085 
     77 H77        27.5390   -2.7490    0.0601 H         1 UNK         0.0836 
     78 H78        28.6915   -1.8159   -0.8440 H         1 UNK         0.0836 
     79 H79        31.8063   -2.8385    0.9728 H         1 UNK         0.0731 
     80 H80        30.6017   -1.5850    0.8529 H         1 UNK         0.0731 
     81 H81        32.7590   -3.8614   -1.1839 H         1 UNK         0.1312 
     82 H82        33.0797   -1.0841   -4.4392 H         1 UNK         0.1406 
     83 H83        30.5343   -0.2080   -1.1134 H         1 UNK         0.1631 
     84 H84        31.2859    0.6316   -4.6319 H         1 UNK         0.0717 
     85 H85        32.2955    1.4652   -3.4770 H         1 UNK         0.0717 
     86 H86        28.9517   -0.3562   -3.4630 H         1 UNK         0.0934 
     87 H87        27.7624    0.7549   -2.8545 H         1 UNK         0.0934 
     88 H88        29.0869    1.1965   -5.5712 H         1 UNK         0.0739 
     89 H89        27.3979   -0.9760   -5.0138 H         1 UNK         0.3093 
     90 H90        26.4913   -1.5784   -8.4390 H         1 UNK         0.0818 
     91 H91        28.7960   -2.4181   -8.1672 H         1 UNK         0.0819 
     92 H92        27.6555   -3.7067   -7.8202 H         1 UNK         0.0819 
     93 H93        28.4775   -2.8751   -6.5007 H         1 UNK         0.0819 
     94 H94        26.1041   -2.4875   -5.6069 H         1 UNK         0.3041 
     95 H95        22.6213   -2.1035   -5.8636 H         1 UNK         0.0784 
     96 H96        22.8231   -4.3447   -6.9662 H         1 UNK         0.0793 
     97 H97        24.0738   -4.8055   -5.8195 H         1 UNK         0.0793 
     98 H98        22.4265   -4.5014   -5.2640 H         1 UNK         0.0793 
     99 H99        24.0894   -3.3123   -3.7956 H         1 UNK         0.3024 
    100 H100       25.2857   -0.3653   -2.1895 H         1 UNK         0.1171 
    101 H101       23.8817   -1.2452   -0.3696 H         1 UNK         0.0786 
    102 H102       22.8513   -0.5998   -1.6340 H         1 UNK         0.0786 
    103 H103       23.0539   -2.3395   -1.4778 H         1 UNK         0.0786 
    104 H104       25.5914   -2.8265   -1.1271 H         1 UNK         0.2977 
    105 H105       25.5831    1.1846   -4.6314 H         1 UNK         0.3127 
    106 H106       25.4464    4.0921   -4.5693 H         1 UNK         0.0770 
    107 H107       23.1531    2.0688   -4.6931 H         1 UNK         0.0814 
    108 H108       23.0630    3.7487   -4.1989 H         1 UNK         0.0814 
    109 H109       23.9331    2.5947   -3.1998 H         1 UNK         0.0814 
    110 H110       25.2331    1.6473   -7.0356 H         1 UNK         0.2983 
    111 H111       23.9539    3.3409   -9.0585 H         1 UNK         0.0947 
    112 H112       24.4023    1.3991  -10.5367 H         1 UNK         0.0806 
    113 H113       23.6440    0.8534   -9.0506 H         1 UNK         0.0806 
    114 H114       25.3746    0.6297   -9.2934 H         1 UNK         0.0806 
    115 H115       27.0056    3.2759   -7.6644 H         1 UNK         0.3000 
    116 H116       28.9900    4.1198   -8.0510 H         1 UNK         0.0850 
    117 H117       29.3014    6.0119   -9.5847 H         1 UNK         0.0810 
    118 H118       27.7512    6.1781   -8.7787 H         1 UNK         0.0810 
    119 H119       27.8245    5.6238  -10.4514 H         1 UNK         0.0810 
    120 H120       28.3216    1.5331   -9.1647 H         1 UNK         0.3040 
    121 H121       30.0223    1.2674  -11.5764 H         1 UNK         0.0766 
    122 H122       27.8500    0.0280  -11.4341 H         1 UNK         0.0812 
    123 H123       28.4203   -0.8094   -9.9922 H         1 UNK         0.0812 
    124 H124       29.2180   -1.0693  -11.5348 H         1 UNK         0.0812 
    125 H125       30.4849    1.4264   -8.2719 H         1 UNK         0.3205 
    126 H126       32.1159    1.0437   -6.8381 H         1 UNK         0.0754 
    127 H127       34.4295    0.6218   -7.5235 H         1 UNK         0.0769 
    128 H128       33.7165    1.7793   -8.6265 H         1 UNK         0.0769 
    129 H129       33.9234    0.1072   -9.1309 H         1 UNK         0.0769 
    130 H130       34.0368   -1.4451   -7.4810 H         1 UNK         0.2981 
    131 H131       32.4063   -3.3373   -5.9933 H         1 UNK         0.0541 
    132 H132       32.1244   -5.6664   -6.7046 H         1 UNK         0.3459 
    133 H133       31.7961   -5.9353   -8.3941 H         1 UNK         0.3459 
    134 H134       34.4551   -4.7943   -6.0556 H         1 UNK         0.0612 
    135 H135       35.2409   -3.6383   -7.0953 H         1 UNK         0.0612 
    136 H136       33.5523   -4.4259   -3.8716 H         1 UNK         0.0624 
    137 H137       34.7487   -3.8781   -2.7295 H         1 UNK         0.0624 
@<TRIPOS>BOND
     1    1    2 1    
     2    1   72 1    
     3    1   73 1    
     4    1   74 1    
     5    2    3 2    
     6    2    4 am   BACKBONE|DICT|INTERRES
     7    4    5 1    
     8    4   75 1    
     9    5    6 1    
    10    5   35 1    
    11    5   76 1    
    12    6    7 1    
    13    6   77 1    
    14    6   78 1    
    15    7    8 1    
    16    8    9 1    
    17    8   79 1    
    18    8   80 1    
    19    9   10 ar   
    20    9   14 ar   
    21   10   11 ar   
    22   10   81 1    
    23   11   12 ar   
    24   11   71 1    
    25   12   13 ar   
    26   12   82 1    
    27   13   14 ar   
    28   13   15 1    
    29   14   83 1    
    30   15   16 1    
    31   15   84 1    
    32   15   85 1    
    33   16   17 1    
    34   17   18 1    
    35   17   86 1    
    36   17   87 1    
    37   18   19 1    
    38   18   37 1    
    39   18   88 1    
    40   19   20 am   BACKBONE|DICT|INTERRES
    41   19   89 1    
    42   20   21 2    
    43   20   22 1    
    44   22   23 1    
    45   22   24 1    
    46   22   90 1    
    47   23   91 1    
    48   23   92 1    
    49   23   93 1    
    50   24   25 am   BACKBONE|DICT|INTERRES
    51   24   94 1    
    52   25   26 2    
    53   25   27 1    
    54   27   28 1    
    55   27   29 1    
    56   27   95 1    
    57   28   96 1    
    58   28   97 1    
    59   28   98 1    
    60   29   30 am   BACKBONE|DICT|INTERRES
    61   29   99 1    
    62   30   31 2    
    63   30   32 1    
    64   32   33 1    
    65   32   34 1    
    66   32  100 1    
    67   33  101 1    
    68   33  102 1    
    69   33  103 1    
    70   34   35 am   BACKBONE|DICT|INTERRES
    71   34  104 1    
    72   35   36 2    
    73   37   38 2    
    74   37   39 am   BACKBONE|DICT|INTERRES
    75   39   40 1    
    76   39  105 1    
    77   40   41 1    
    78   40   42 1    
    79   40  106 1    
    80   41  107 1    
    81   41  108 1    
    82   41  109 1    
    83   42   43 2    
    84   42   44 am   BACKBONE|DICT|INTERRES
    85   44   45 1    
    86   44  110 1    
    87   45   46 1    
    88   45   47 1    
    89   45  111 1    
    90   46  112 1    
    91   46  113 1    
    92   46  114 1    
    93   47   48 2    
    94   47   49 am   BACKBONE|DICT|INTERRES
    95   49   50 1    
    96   49  115 1    
    97   50   51 1    
    98   50   52 1    
    99   50  116 1    
   100   51  117 1    
   101   51  118 1    
   102   51  119 1    
   103   52   53 2    
   104   52   54 am   BACKBONE|DICT|INTERRES
   105   54   55 1    
   106   54  120 1    
   107   55   56 1    
   108   55   57 1    
   109   55  121 1    
   110   56  122 1    
   111   56  123 1    
   112   56  124 1    
   113   57   58 2    
   114   57   59 am   BACKBONE|DICT|INTERRES
   115   59   60 1    
   116   59  125 1    
   117   60   61 1    
   118   60   62 1    
   119   60  126 1    
   120   61  127 1    
   121   61  128 1    
   122   61  129 1    
   123   62   63 2    
   124   62   64 am   BACKBONE|DICT|INTERRES
   125   64   65 1    
   126   64  130 1    
   127   65   66 1    
   128   65   69 1    
   129   65  131 1    
   130   66   67 am   BACKBONE|DICT|INTERRES
   131   66   68 2    
   132   67  132 1    
   133   67  133 1    
   134   69   70 1    
   135   69  134 1    
   136   69  135 1    
   137   70   71 1    
   138   71  136 1    
   139   71  137 1    
@<TRIPOS>SUBSTRUCTURE
     1 UNK         1 GROUP             0       ****    0 ROOT    
