@<TRIPOS>MOLECULE
3R137
137   139    1
SMALL
USER_CHARGES


@<TRIPOS>ATOM
      1 CA         25.6433   -8.8815   -2.9163 C.3       0 UNK        -0.2020 
      2 C          25.7203   -7.5693   -2.1501 C.2       0 UNK         0.4855 
      3 O          25.3154   -7.5135   -0.9885 O.2       0 UNK        -0.5197 
      4 N          26.2359   -6.5117   -2.7913 N.am      1 UNK        -0.4892 
      5 CA         26.4084   -5.1729   -2.2038 C.3       1 UNK         0.0835 
      6 C6         27.3982   -4.2995   -3.0199 C.3       12 UNK        -0.0855 
      7 S7         29.0007   -5.1310   -3.2906 S.3       12 UNK        -0.2931 
      8 C8         30.0623   -4.3384   -2.0378 C.3       12 UNK         0.0378 
      9 C9         30.5634   -2.9625   -2.4637 C.ar      12 UNK        -0.0802 
     10 C10        31.2266   -2.7993   -3.6847 C.ar      12 UNK        -0.0944 
     11 C11        31.7297   -1.5527   -4.0680 C.ar      12 UNK        -0.0787 
     12 C12        31.5777   -0.4631   -3.2035 C.ar      12 UNK        -0.0862 
     13 C13        30.9185   -0.6091   -1.9784 C.ar      12 UNK        -0.0733 
     14 C14        30.4089   -1.8603   -1.6164 C.ar      12 UNK        -0.0832 
     15 C15        30.7697    0.5809   -1.0392 C.3       12 UNK         0.0240 
     16 S16        29.1737    1.4328   -1.2568 S.3       12 UNK        -0.2522 
     17 C17        29.3792    2.1822   -2.9071 C.3       12 UNK        -0.0967 
     18 CA         28.6972    1.3220   -4.0046 C.3       5 UNK         0.0660 
     19 N          27.2365    1.2922   -3.8786 N.am      5 UNK        -0.4015 
     20 C          26.3527    2.2580   -4.1579 C.2       4 UNK         0.4946 
     21 O          26.6446    3.3261   -4.6998 O.2       4 UNK        -0.5353 
     22 CA         24.8880    1.9688   -3.7684 C.3       4 UNK         0.0277 
     23 CB         23.9796    3.2012   -3.9412 C.3       4 UNK        -0.1981 
     24 N          24.3082    0.8470   -4.5127 N.am      4 UNK        -0.4209 
     25 C          24.6084   -0.4452   -4.3354 C.2       3 UNK         0.4942 
     26 O          25.4514   -0.8511   -3.5306 O.2       3 UNK        -0.5208 
     27 CA         23.8742   -1.4467   -5.2395 C.3       3 UNK         0.0250 
     28 CB         24.7099   -1.7451   -6.4952 C.3       3 UNK        -0.1990 
     29 N          23.6201   -2.6964   -4.5242 N.am      3 UNK        -0.4232 
     30 C          22.7094   -2.8491   -3.5523 C.2       2 UNK         0.4993 
     31 O          21.8877   -1.9859   -3.2403 O.2       2 UNK        -0.5286 
     32 CA         22.7164   -4.1905   -2.7984 C.3       2 UNK         0.0209 
     33 CB         21.6957   -5.1623   -3.4131 C.3       2 UNK        -0.1931 
     34 N          24.0384   -4.8243   -2.7833 N.am      2 UNK        -0.4546 
     35 C          25.0677   -4.4287   -2.0178 C.2       1 UNK         0.5154 
     36 O          24.9903   -3.5191   -1.1909 O.2       1 UNK        -0.5181 
     37 C          29.1563    1.6831   -5.4291 C.2       5 UNK         0.5014 
     38 O          29.2673    0.7907   -6.2690 O.2       5 UNK        -0.5248 
     39 N          29.3834    2.9776   -5.6971 N.am      6 UNK        -0.4434 
     40 CA         29.7408    3.5135   -7.0144 C.3       6 UNK         0.0363 
     41 CB         30.0253    5.0181   -6.8967 C.3       6 UNK        -0.1936 
     42 C          28.6885    3.2388   -8.1047 C.2       6 UNK         0.5081 
     43 O          29.0460    3.1595   -9.2796 O.2       6 UNK        -0.5248 
     44 N          27.4266    3.0220   -7.7029 N.am      7 UNK        -0.4718 
     45 CA         26.3399    2.5544   -8.5706 C.3       7 UNK         0.0273 
     46 CB         25.0232    2.5656   -7.7811 C.3       7 UNK        -0.1935 
     47 C          26.5817    1.1621   -9.1916 C.2       7 UNK         0.5018 
     48 O          25.9631    0.8529  -10.2101 O.2       7 UNK        -0.5186 
     49 N          27.4832    0.3592   -8.6024 N.am      8 UNK        -0.4240 
     50 CA         27.9443   -0.9168   -9.1567 C.3       8 UNK         0.0235 
     51 CB         28.4944   -1.7967   -8.0194 C.3       8 UNK        -0.2000 
     52 C          29.0092   -0.7490  -10.2593 C.2       8 UNK         0.4941 
     53 O          29.4361   -1.7580  -10.8201 O.2       8 UNK        -0.5273 
     54 N          29.4696    0.4864  -10.5221 N.am      9 UNK        -0.4262 
     55 CA         30.4725    0.9109  -11.5144 C.3       9 UNK         0.0264 
     56 CB         30.0337    0.5465  -12.9467 C.3       9 UNK        -0.1955 
     57 C          31.9169    0.4458  -11.2414 C.2       9 UNK         0.5031 
     58 O          32.8507    1.1017  -11.7051 O.2       9 UNK        -0.5390 
     59 N          32.0888   -0.6512  -10.4933 N.am      10 UNK        -0.4204 
     60 CA         33.3756   -1.2109  -10.0716 C.3       10 UNK         0.0237 
     61 CB         33.1343   -2.5984   -9.4536 C.3       10 UNK        -0.1985 
     62 C          34.1558   -0.3193   -9.0869 C.2       10 UNK         0.4970 
     63 O          35.3816   -0.4270   -9.0327 O.2       10 UNK        -0.4914 
     64 N          33.4414    0.5230   -8.3318 N.am      11 UNK        -0.4285 
     65 CA         33.9894    1.4731   -7.3531 C.3       11 UNK         0.1007 
     66 C          33.6995    2.9385   -7.7748 C.2       11 UNK         0.5703 
     67 N          34.3395    3.9055   -7.1313 N.am      11 UNK        -0.7361 
     68 O          32.8982    3.2144   -8.6656 O.2       11 UNK        -0.4986 
     69 C69        33.4673    1.1756   -5.9207 C.3       12 UNK        -0.0947 
     70 S70        33.9826   -0.4779   -5.3396 S.3       12 UNK        -0.2240 
     71 C71        32.4138   -1.4036   -5.4241 C.3       12 UNK         0.0194 
     72 H72        26.2124   -9.6525   -2.3975 H         1 UNK         0.0906 
     73 H73        24.6080   -9.2135   -2.9892 H         1 UNK         0.0906 
     74 H74        26.0417   -8.7888   -3.9267 H         1 UNK         0.0906 
     75 H75        26.5920   -6.6221   -3.7311 H         1 UNK         0.3140 
     76 H76        26.8291   -5.3045   -1.2039 H         1 UNK         0.1085 
     77 H77        26.9798   -4.0576   -3.9991 H         1 UNK         0.0836 
     78 H78        27.5678   -3.3407   -2.5243 H         1 UNK         0.0836 
     79 H79        29.5234   -4.2884   -1.0902 H         1 UNK         0.0731 
     80 H80        30.9278   -4.9789   -1.8629 H         1 UNK         0.0731 
     81 H81        31.3475   -3.6513   -4.3399 H         1 UNK         0.1312 
     82 H82        31.9711    0.5025   -3.4867 H         1 UNK         0.1406 
     83 H83        29.9033   -1.9753   -0.6668 H         1 UNK         0.1631 
     84 H84        31.5871    1.2893   -1.1835 H         1 UNK         0.0717 
     85 H85        30.8460    0.2420   -0.0049 H         1 UNK         0.0717 
     86 H86        28.9533    3.1865   -2.8777 H         1 UNK         0.0934 
     87 H87        30.4443    2.3134   -3.1056 H         1 UNK         0.0934 
     88 H88        29.0079    0.2866   -3.8628 H         1 UNK         0.0739 
     89 H89        26.8487    0.4212   -3.5228 H         1 UNK         0.3093 
     90 H90        24.8885    1.7090   -2.7073 H         1 UNK         0.0818 
     91 H91        22.9700    3.0050   -3.5797 H         1 UNK         0.0819 
     92 H92        24.3635    4.0511   -3.3749 H         1 UNK         0.0819 
     93 H93        23.9091    3.5116   -4.9841 H         1 UNK         0.0819 
     94 H94        23.6149    1.0877   -5.2063 H         1 UNK         0.3041 
     95 H95        22.9167   -1.0192   -5.5456 H         1 UNK         0.0784 
     96 H96        24.9293   -0.8327   -7.0515 H         1 UNK         0.0793 
     97 H97        25.6629   -2.2089   -6.2395 H         1 UNK         0.0793 
     98 H98        24.1822   -2.4167   -7.1728 H         1 UNK         0.0793 
     99 H99        24.2696   -3.4504   -4.6865 H         1 UNK         0.3024 
    100 H100       22.4188   -3.9858   -1.7671 H         1 UNK         0.1171 
    101 H101       20.6952   -4.7270   -3.4140 H         1 UNK         0.0786 
    102 H102       21.6419   -6.0919   -2.8458 H         1 UNK         0.0786 
    103 H103       21.9434   -5.4117   -4.4457 H         1 UNK         0.0786 
    104 H104       24.1852   -5.6045   -3.4076 H         1 UNK         0.2977 
    105 H105       29.1819    3.6554   -4.9756 H         1 UNK         0.3127 
    106 H106       30.6572    3.0118   -7.3261 H         1 UNK         0.0770 
    107 H107       29.1468    5.5704   -6.5607 H         1 UNK         0.0814 
    108 H108       30.3243    5.4325   -7.8607 H         1 UNK         0.0814 
    109 H109       30.8382    5.2148   -6.1974 H         1 UNK         0.0814 
    110 H110       27.2141    3.1262   -6.7153 H         1 UNK         0.2983 
    111 H111       26.2513    3.2635   -9.3966 H         1 UNK         0.0947 
    112 H112       24.1820    2.2889   -8.4183 H         1 UNK         0.0806 
    113 H113       24.8109    3.5544   -7.3741 H         1 UNK         0.0806 
    114 H114       25.0529    1.8579   -6.9545 H         1 UNK         0.0806 
    115 H115       27.9669    0.6807   -7.7681 H         1 UNK         0.3000 
    116 H116       27.0905   -1.4327   -9.6013 H         1 UNK         0.0850 
    117 H117       28.6737   -2.8147   -8.3677 H         1 UNK         0.0810 
    118 H118       29.4422   -1.4179   -7.6353 H         1 UNK         0.0810 
    119 H119       27.7990   -1.8581   -7.1834 H         1 UNK         0.0810 
    120 H120       29.0949    1.2545   -9.9729 H         1 UNK         0.3040 
    121 H121       30.4936    2.0001  -11.4483 H         1 UNK         0.0766 
    122 H122       29.0394    0.9347  -13.1674 H         1 UNK         0.0812 
    123 H123       30.0176   -0.5317  -13.1082 H         1 UNK         0.0812 
    124 H124       30.7179    0.9717  -13.6822 H         1 UNK         0.0812 
    125 H125       31.2532   -1.1793  -10.2625 H         1 UNK         0.3205 
    126 H126       33.9942   -1.3329  -10.9632 H         1 UNK         0.0754 
    127 H127       34.0747   -3.0603   -9.1492 H         1 UNK         0.0769 
    128 H128       32.6590   -3.2734  -10.1660 H         1 UNK         0.0769 
    129 H129       32.4981   -2.5410   -8.5692 H         1 UNK         0.0769 
    130 H130       32.4493    0.5951   -8.4976 H         1 UNK         0.2981 
    131 H131       35.0772    1.3839   -7.3357 H         1 UNK         0.0541 
    132 H132       34.1631    4.8633   -7.3910 H         1 UNK         0.3459 
    133 H133       35.0032    3.6992   -6.4011 H         1 UNK         0.3459 
    134 H134       32.3810    1.2727   -5.8761 H         1 UNK         0.0612 
    135 H135       33.8637    1.9012   -5.2082 H         1 UNK         0.0612 
    136 H136       32.6392   -2.3868   -5.8404 H         1 UNK         0.0624 
    137 H137       31.7250   -0.9313   -6.1261 H         1 UNK         0.0624 
@<TRIPOS>BOND
     1    1    2 1    
     2    1   72 1    
     3    1   73 1    
     4    1   74 1    
     5    2    3 2    
     6    2    4 am   BACKBONE|DICT|INTERRES
     7    4    5 1    
     8    4   75 1    
     9    5    6 1    
    10    5   35 1    
    11    5   76 1    
    12    6    7 1    
    13    6   77 1    
    14    6   78 1    
    15    7    8 1    
    16    8    9 1    
    17    8   79 1    
    18    8   80 1    
    19    9   10 ar   
    20    9   14 ar   
    21   10   11 ar   
    22   10   81 1    
    23   11   12 ar   
    24   11   71 1    
    25   12   13 ar   
    26   12   82 1    
    27   13   14 ar   
    28   13   15 1    
    29   14   83 1    
    30   15   16 1    
    31   15   84 1    
    32   15   85 1    
    33   16   17 1    
    34   17   18 1    
    35   17   86 1    
    36   17   87 1    
    37   18   19 1    
    38   18   37 1    
    39   18   88 1    
    40   19   20 am   BACKBONE|DICT|INTERRES
    41   19   89 1    
    42   20   21 2    
    43   20   22 1    
    44   22   23 1    
    45   22   24 1    
    46   22   90 1    
    47   23   91 1    
    48   23   92 1    
    49   23   93 1    
    50   24   25 am   BACKBONE|DICT|INTERRES
    51   24   94 1    
    52   25   26 2    
    53   25   27 1    
    54   27   28 1    
    55   27   29 1    
    56   27   95 1    
    57   28   96 1    
    58   28   97 1    
    59   28   98 1    
    60   29   30 am   BACKBONE|DICT|INTERRES
    61   29   99 1    
    62   30   31 2    
    63   30   32 1    
    64   32   33 1    
    65   32   34 1    
    66   32  100 1    
    67   33  101 1    
    68   33  102 1    
    69   33  103 1    
    70   34   35 am   BACKBONE|DICT|INTERRES
    71   34  104 1    
    72   35   36 2    
    73   37   38 2    
    74   37   39 am   BACKBONE|DICT|INTERRES
    75   39   40 1    
    76   39  105 1    
    77   40   41 1    
    78   40   42 1    
    79   40  106 1    
    80   41  107 1    
    81   41  108 1    
    82   41  109 1    
    83   42   43 2    
    84   42   44 am   BACKBONE|DICT|INTERRES
    85   44   45 1    
    86   44  110 1    
    87   45   46 1    
    88   45   47 1    
    89   45  111 1    
    90   46  112 1    
    91   46  113 1    
    92   46  114 1    
    93   47   48 2    
    94   47   49 am   BACKBONE|DICT|INTERRES
    95   49   50 1    
    96   49  115 1    
    97   50   51 1    
    98   50   52 1    
    99   50  116 1    
   100   51  117 1    
   101   51  118 1    
   102   51  119 1    
   103   52   53 2    
   104   52   54 am   BACKBONE|DICT|INTERRES
   105   54   55 1    
   106   54  120 1    
   107   55   56 1    
   108   55   57 1    
   109   55  121 1    
   110   56  122 1    
   111   56  123 1    
   112   56  124 1    
   113   57   58 2    
   114   57   59 am   BACKBONE|DICT|INTERRES
   115   59   60 1    
   116   59  125 1    
   117   60   61 1    
   118   60   62 1    
   119   60  126 1    
   120   61  127 1    
   121   61  128 1    
   122   61  129 1    
   123   62   63 2    
   124   62   64 am   BACKBONE|DICT|INTERRES
   125   64   65 1    
   126   64  130 1    
   127   65   66 1    
   128   65   69 1    
   129   65  131 1    
   130   66   67 am   BACKBONE|DICT|INTERRES
   131   66   68 2    
   132   67  132 1    
   133   67  133 1    
   134   69   70 1    
   135   69  134 1    
   136   69  135 1    
   137   70   71 1    
   138   71  136 1    
   139   71  137 1    
@<TRIPOS>SUBSTRUCTURE
     1 UNK         1 GROUP             0       ****    0 ROOT    
