@<TRIPOS>MOLECULE
3R137
137   139    1
SMALL
USER_CHARGES


@<TRIPOS>ATOM
      1 CA         26.5998   -3.4746    4.0485 C.3       0 UNK        -0.2020 
      2 C          26.6938   -2.4337    2.9426 C.2       0 UNK         0.4855 
      3 O          26.1075   -1.3579    3.0664 O.2       0 UNK        -0.5197 
      4 N          27.4366   -2.7443    1.8737 N.am      1 UNK        -0.4892 
      5 CA         27.6052   -1.9121    0.6805 C.3       1 UNK         0.0835 
      6 C6         29.0578   -1.9824    0.1277 C.3       12 UNK        -0.0855 
      7 S7         29.6977   -3.6759   -0.1455 S.3       12 UNK        -0.2931 
      8 C8         31.3265   -3.3286   -0.8798 C.3       12 UNK         0.0378 
      9 C9         31.2047   -2.7757   -2.2924 C.ar      12 UNK        -0.0802 
     10 C10        31.3812   -1.4115   -2.5351 C.ar      12 UNK        -0.0944 
     11 C11        31.2781   -0.8955   -3.8298 C.ar      12 UNK        -0.0787 
     12 C12        30.9792   -1.7661   -4.8863 C.ar      12 UNK        -0.0862 
     13 C13        30.8210   -3.1410   -4.6644 C.ar      12 UNK        -0.0733 
     14 C14        30.9335   -3.6336   -3.3609 C.ar      12 UNK        -0.0832 
     15 C15        30.5725   -4.1351   -5.8011 C.3       12 UNK         0.0240 
     16 S16        29.7831   -3.4499   -7.2962 S.3       12 UNK        -0.2522 
     17 C17        28.1566   -2.9695   -6.6431 C.3       12 UNK        -0.0967 
     18 CA         27.4631   -1.8744   -7.4861 C.3       5 UNK         0.0660 
     19 N          26.0284   -1.8350   -7.1974 N.am      5 UNK        -0.4015 
     20 C          25.1097   -1.1739   -7.9131 C.2       4 UNK         0.4946 
     21 O          25.3606   -0.5401   -8.9372 O.2       4 UNK        -0.5353 
     22 CA         23.6705   -1.1990   -7.3698 C.3       4 UNK         0.0277 
     23 CB         22.9390   -2.4692   -7.8322 C.3       4 UNK        -0.1981 
     24 N          23.6140   -1.0999   -5.9073 N.am      4 UNK        -0.4209 
     25 C          23.9753   -0.0084   -5.2176 C.2       3 UNK         0.4942 
     26 O          24.3585    1.0344   -5.7437 O.2       3 UNK        -0.5208 
     27 CA         23.9471   -0.1027   -3.6837 C.3       3 UNK         0.0250 
     28 CB         22.5338    0.1824   -3.1514 C.3       3 UNK        -0.1990 
     29 N          24.4299   -1.3782   -3.1426 N.am      3 UNK        -0.4232 
     30 C          25.6386   -1.9094   -3.3726 C.2       2 UNK         0.4993 
     31 O          26.4677   -1.4238   -4.1448 O.2       2 UNK        -0.5286 
     32 CA         25.9889   -3.1865   -2.5929 C.3       2 UNK         0.0209 
     33 CB         26.6792   -4.2326   -3.4851 C.3       2 UNK        -0.1931 
     34 N          26.8711   -2.8659   -1.4732 N.am      2 UNK        -0.4546 
     35 C          26.4992   -2.2477   -0.3455 C.2       1 UNK         0.5154 
     36 O          25.3292   -1.9460   -0.1003 O.2       1 UNK        -0.5181 
     37 C          28.1079   -0.4878   -7.2850 C.2       5 UNK         0.5014 
     38 O          28.8939   -0.0502   -8.1292 O.2       5 UNK        -0.5248 
     39 N          27.7229    0.1889   -6.1926 N.am      6 UNK        -0.4434 
     40 CA         28.1054    1.5644   -5.8799 C.3       6 UNK         0.0363 
     41 CB         27.6452    1.9180   -4.4571 C.3       6 UNK        -0.1936 
     42 C          27.5709    2.5773   -6.9058 C.2       6 UNK         0.5081 
     43 O          28.3312    3.4379   -7.3466 O.2       6 UNK        -0.5248 
     44 N          26.2961    2.4408   -7.3010 N.am      7 UNK        -0.4718 
     45 CA         25.6471    3.2642   -8.3284 C.3       7 UNK         0.0273 
     46 CB         24.1411    2.9613   -8.3663 C.3       7 UNK        -0.1935 
     47 C          26.2687    3.0900   -9.7242 C.2       7 UNK         0.5018 
     48 O          26.4235    4.0775  -10.4435 O.2       7 UNK        -0.5186 
     49 N          26.6462    1.8503  -10.0676 N.am      8 UNK        -0.4240 
     50 CA         27.3961    1.5147  -11.2818 C.3       8 UNK         0.0235 
     51 CB         27.3122   -0.0028  -11.5179 C.3       8 UNK        -0.2000 
     52 C          28.8705    1.9615  -11.2395 C.2       8 UNK         0.4941 
     53 O          29.5111    1.9863  -12.2911 O.2       8 UNK        -0.5273 
     54 N          29.3828    2.2763  -10.0389 N.am      9 UNK        -0.4262 
     55 CA         30.7746    2.6006   -9.7091 C.3       9 UNK         0.0264 
     56 CB         31.1981    3.9401  -10.3474 C.3       9 UNK        -0.1955 
     57 C          31.7382    1.4421  -10.0301 C.2       9 UNK         0.5031 
     58 O          32.8646    1.6774  -10.4713 O.2       9 UNK        -0.5390 
     59 N          31.2833    0.2055   -9.7892 N.am      10 UNK        -0.4204 
     60 CA         32.0110   -1.0352  -10.0740 C.3       10 UNK         0.0237 
     61 CB         31.0100   -2.0752  -10.6101 C.3       10 UNK        -0.1985 
     62 C          32.8063   -1.5384   -8.8518 C.2       10 UNK         0.4970 
     63 O          33.0410   -2.7404   -8.7223 O.2       10 UNK        -0.4914 
     64 N          33.2018   -0.6089   -7.9749 N.am      11 UNK        -0.4285 
     65 CA         33.8653   -0.8524   -6.6857 C.3       11 UNK         0.1007 
     66 C          35.3406   -1.3389   -6.7778 C.2       11 UNK         0.5703 
     67 N          35.9862   -1.2972   -7.9375 N.am      11 UNK        -0.7361 
     68 O          35.9098   -1.7657   -5.7761 O.2       11 UNK        -0.4986 
     69 C69        33.7448    0.3813   -5.7464 C.3       12 UNK        -0.0947 
     70 S70        32.0661    1.1049   -5.6878 S.3       12 UNK        -0.2240 
     71 C71        31.4758    0.6069   -4.0342 C.3       12 UNK         0.0194 
     72 H72        25.5617   -3.7706    4.1974 H         1 UNK         0.0906 
     73 H73        26.9743   -3.0622    4.9850 H         1 UNK         0.0906 
     74 H74        27.1775   -4.3696    3.8178 H         1 UNK         0.0906 
     75 H75        27.8902   -3.6467    1.8247 H         1 UNK         0.3140 
     76 H76        27.4326   -0.8684    0.9535 H         1 UNK         0.1085 
     77 H77        29.7276   -1.4918    0.8358 H         1 UNK         0.0836 
     78 H78        29.1395   -1.4032   -0.7939 H         1 UNK         0.0836 
     79 H79        31.8768   -2.6393   -0.2372 H         1 UNK         0.0731 
     80 H80        31.9074   -4.2519   -0.9015 H         1 UNK         0.0731 
     81 H81        31.5992   -0.7470   -1.7100 H         1 UNK         0.1312 
     82 H82        30.8903   -1.3737   -5.8888 H         1 UNK         0.1406 
     83 H83        30.8136   -4.6923   -3.1730 H         1 UNK         0.1631 
     84 H84        29.9581   -4.9632   -5.4439 H         1 UNK         0.0717 
     85 H85        31.5319   -4.5645   -6.0923 H         1 UNK         0.0717 
     86 H86        27.5459   -3.8734   -6.6201 H         1 UNK         0.0934 
     87 H87        28.2595   -2.6461   -5.6072 H         1 UNK         0.0934 
     88 H88        27.5672   -2.1344   -8.5420 H         1 UNK         0.0739 
     89 H89        25.7375   -2.2669   -6.3332 H         1 UNK         0.3093 
     90 H90        23.1469   -0.3356   -7.7858 H         1 UNK         0.0818 
     91 H91        22.9550   -2.5526   -8.9199 H         1 UNK         0.0819 
     92 H92        23.3974   -3.3733   -7.4296 H         1 UNK         0.0819 
     93 H93        21.8927   -2.4577   -7.5263 H         1 UNK         0.0819 
     94 H94        23.2989   -1.9123   -5.3970 H         1 UNK         0.3041 
     95 H95        24.6127    0.6749   -3.3033 H         1 UNK         0.0784 
     96 H96        22.1609    1.1370   -3.5258 H         1 UNK         0.0793 
     97 H97        21.8229   -0.5871   -3.4550 H         1 UNK         0.0793 
     98 H98        22.5238    0.2387   -2.0626 H         1 UNK         0.0793 
     99 H99        23.8347   -1.8254   -2.4593 H         1 UNK         0.3024 
    100 H100       25.0683   -3.6287   -2.2053 H         1 UNK         0.1171 
    101 H101       26.1022   -4.4237   -4.3907 H         1 UNK         0.0786 
    102 H102       27.6765   -3.9125   -3.7865 H         1 UNK         0.0786 
    103 H103       26.7853   -5.1835   -2.9628 H         1 UNK         0.0786 
    104 H104       27.8520   -3.0867   -1.5877 H         1 UNK         0.2977 
    105 H105       27.1234   -0.2834   -5.5189 H         1 UNK         0.3127 
    106 H106       29.1941    1.6144   -5.9088 H         1 UNK         0.0770 
    107 H107       26.5586    1.9145   -4.3709 H         1 UNK         0.0814 
    108 H108       27.9922    2.9121   -4.1726 H         1 UNK         0.0814 
    109 H109       28.0383    1.2123   -3.7250 H         1 UNK         0.0814 
    110 H110       25.7096    1.7510   -6.8355 H         1 UNK         0.2983 
    111 H111       25.7764    4.3101   -8.0419 H         1 UNK         0.0947 
    112 H112       23.9463    1.9177   -8.6147 H         1 UNK         0.0806 
    113 H113       23.6369    3.5755   -9.1136 H         1 UNK         0.0806 
    114 H114       23.6708    3.1697   -7.4052 H         1 UNK         0.0806 
    115 H115       26.4039    1.0774   -9.4533 H         1 UNK         0.3000 
    116 H116       26.9249    2.0212  -12.1268 H         1 UNK         0.0850 
    117 H117       27.8349   -0.2882  -12.4318 H         1 UNK         0.0810 
    118 H118       26.2779   -0.3320  -11.6199 H         1 UNK         0.0810 
    119 H119       27.7616   -0.5625  -10.6965 H         1 UNK         0.0810 
    120 H120       28.7639    2.2117   -9.2400 H         1 UNK         0.3040 
    121 H121       30.8052    2.7267   -8.6256 H         1 UNK         0.0766 
    122 H122       31.2490    3.8736  -11.4345 H         1 UNK         0.0812 
    123 H123       32.1834    4.2465   -9.9942 H         1 UNK         0.0812 
    124 H124       30.5003    4.7375  -10.0913 H         1 UNK         0.0812 
    125 H125       30.3767    0.1057   -9.3336 H         1 UNK         0.3205 
    126 H126       32.7442   -0.8545  -10.8626 H         1 UNK         0.0754 
    127 H127       31.4983   -3.0249  -10.8318 H         1 UNK         0.0769 
    128 H128       30.5449   -1.7298  -11.5336 H         1 UNK         0.0769 
    129 H129       30.2124   -2.2717   -9.8947 H         1 UNK         0.0769 
    130 H130       32.9827    0.3551   -8.1744 H         1 UNK         0.2981 
    131 H131       33.3304   -1.6770   -6.2147 H         1 UNK         0.0541 
    132 H132       36.9403   -1.6182   -7.9843 H         1 UNK         0.3459 
    133 H133       35.5266   -0.9523   -8.7647 H         1 UNK         0.3459 
    134 H134       34.4222    1.1711   -6.0761 H         1 UNK         0.0612 
    135 H135       34.0573    0.1189   -4.7340 H         1 UNK         0.0612 
    136 H136       32.1773    0.9959   -3.2945 H         1 UNK         0.0624 
    137 H137       30.5251    1.1046   -3.8449 H         1 UNK         0.0624 
@<TRIPOS>BOND
     1    1    2 1    
     2    1   72 1    
     3    1   73 1    
     4    1   74 1    
     5    2    3 2    
     6    2    4 am   BACKBONE|DICT|INTERRES
     7    4    5 1    
     8    4   75 1    
     9    5    6 1    
    10    5   35 1    
    11    5   76 1    
    12    6    7 1    
    13    6   77 1    
    14    6   78 1    
    15    7    8 1    
    16    8    9 1    
    17    8   79 1    
    18    8   80 1    
    19    9   10 ar   
    20    9   14 ar   
    21   10   11 ar   
    22   10   81 1    
    23   11   12 ar   
    24   11   71 1    
    25   12   13 ar   
    26   12   82 1    
    27   13   14 ar   
    28   13   15 1    
    29   14   83 1    
    30   15   16 1    
    31   15   84 1    
    32   15   85 1    
    33   16   17 1    
    34   17   18 1    
    35   17   86 1    
    36   17   87 1    
    37   18   19 1    
    38   18   37 1    
    39   18   88 1    
    40   19   20 am   BACKBONE|DICT|INTERRES
    41   19   89 1    
    42   20   21 2    
    43   20   22 1    
    44   22   23 1    
    45   22   24 1    
    46   22   90 1    
    47   23   91 1    
    48   23   92 1    
    49   23   93 1    
    50   24   25 am   BACKBONE|DICT|INTERRES
    51   24   94 1    
    52   25   26 2    
    53   25   27 1    
    54   27   28 1    
    55   27   29 1    
    56   27   95 1    
    57   28   96 1    
    58   28   97 1    
    59   28   98 1    
    60   29   30 am   BACKBONE|DICT|INTERRES
    61   29   99 1    
    62   30   31 2    
    63   30   32 1    
    64   32   33 1    
    65   32   34 1    
    66   32  100 1    
    67   33  101 1    
    68   33  102 1    
    69   33  103 1    
    70   34   35 am   BACKBONE|DICT|INTERRES
    71   34  104 1    
    72   35   36 2    
    73   37   38 2    
    74   37   39 am   BACKBONE|DICT|INTERRES
    75   39   40 1    
    76   39  105 1    
    77   40   41 1    
    78   40   42 1    
    79   40  106 1    
    80   41  107 1    
    81   41  108 1    
    82   41  109 1    
    83   42   43 2    
    84   42   44 am   BACKBONE|DICT|INTERRES
    85   44   45 1    
    86   44  110 1    
    87   45   46 1    
    88   45   47 1    
    89   45  111 1    
    90   46  112 1    
    91   46  113 1    
    92   46  114 1    
    93   47   48 2    
    94   47   49 am   BACKBONE|DICT|INTERRES
    95   49   50 1    
    96   49  115 1    
    97   50   51 1    
    98   50   52 1    
    99   50  116 1    
   100   51  117 1    
   101   51  118 1    
   102   51  119 1    
   103   52   53 2    
   104   52   54 am   BACKBONE|DICT|INTERRES
   105   54   55 1    
   106   54  120 1    
   107   55   56 1    
   108   55   57 1    
   109   55  121 1    
   110   56  122 1    
   111   56  123 1    
   112   56  124 1    
   113   57   58 2    
   114   57   59 am   BACKBONE|DICT|INTERRES
   115   59   60 1    
   116   59  125 1    
   117   60   61 1    
   118   60   62 1    
   119   60  126 1    
   120   61  127 1    
   121   61  128 1    
   122   61  129 1    
   123   62   63 2    
   124   62   64 am   BACKBONE|DICT|INTERRES
   125   64   65 1    
   126   64  130 1    
   127   65   66 1    
   128   65   69 1    
   129   65  131 1    
   130   66   67 am   BACKBONE|DICT|INTERRES
   131   66   68 2    
   132   67  132 1    
   133   67  133 1    
   134   69   70 1    
   135   69  134 1    
   136   69  135 1    
   137   70   71 1    
   138   71  136 1    
   139   71  137 1    
@<TRIPOS>SUBSTRUCTURE
     1 UNK         1 GROUP             0       ****    0 ROOT    
