@<TRIPOS>MOLECULE
3R137
137   139    1
SMALL
USER_CHARGES


@<TRIPOS>ATOM
      1 CA         28.2537   -2.0911    4.2266 C.3       0 UNK        -0.2020 
      2 C          28.4233   -1.4853    2.8413 C.2       0 UNK         0.4855 
      3 O          29.0323   -0.4238    2.7072 O.2       0 UNK        -0.5197 
      4 N          27.8886   -2.1488    1.8121 N.am      1 UNK        -0.4892 
      5 CA         27.9014   -1.7183    0.4150 C.3       1 UNK         0.0835 
      6 C6         29.2735   -1.9689   -0.2665 C.3       12 UNK        -0.0855 
      7 S7         29.6384   -0.7195   -1.5428 S.3       12 UNK        -0.2931 
      8 C8         31.2926   -1.2706   -2.0932 C.3       12 UNK         0.0378 
      9 C9         31.3235   -2.4866   -3.0238 C.ar      12 UNK        -0.0802 
     10 C10        32.5675   -2.9590   -3.4547 C.ar      12 UNK        -0.0944 
     11 C11        32.6603   -4.0332   -4.3453 C.ar      12 UNK        -0.0787 
     12 C12        31.4924   -4.6466   -4.8080 C.ar      12 UNK        -0.0862 
     13 C13        30.2417   -4.1958   -4.3792 C.ar      12 UNK        -0.0733 
     14 C14        30.1654   -3.1275   -3.4822 C.ar      12 UNK        -0.0832 
     15 C15        28.9641   -4.8544   -4.8795 C.3       12 UNK         0.0240 
     16 S16        28.3462   -4.1022   -6.4223 S.3       12 UNK        -0.2522 
     17 C17        28.2668   -2.3283   -6.0027 C.3       12 UNK        -0.0967 
     18 CA         27.4752   -1.5239   -7.0572 C.3       5 UNK         0.0660 
     19 N          26.0365   -1.7909   -6.9993 N.am      5 UNK        -0.4015 
     20 C          25.1490   -1.3881   -7.9192 C.2       4 UNK         0.4946 
     21 O          25.4475   -0.7735   -8.9430 O.2       4 UNK        -0.5353 
     22 CA         23.6710   -1.6819   -7.6185 C.3       4 UNK         0.0277 
     23 CB         23.3318   -3.1502   -7.9221 C.3       4 UNK        -0.1981 
     24 N          23.3075   -1.3621   -6.2351 N.am      4 UNK        -0.4209 
     25 C          23.3202   -0.1239   -5.7198 C.2       3 UNK         0.4942 
     26 O          23.6118    0.8833   -6.3619 O.2       3 UNK        -0.5208 
     27 CA         22.9883    0.0136   -4.2261 C.3       3 UNK         0.0250 
     28 CB         21.4675    0.0877   -4.0151 C.3       3 UNK        -0.1990 
     29 N          23.5517   -1.0552   -3.3953 N.am      3 UNK        -0.4232 
     30 C          24.8611   -1.2996   -3.2516 C.2       2 UNK         0.4993 
     31 O          25.7507   -0.7007   -3.8624 O.2       2 UNK        -0.5286 
     32 CA         25.2474   -2.4218   -2.2877 C.3       2 UNK         0.0209 
     33 CB         25.5462   -3.7207   -3.0561 C.3       2 UNK        -0.1931 
     34 N          26.4178   -1.9867   -1.5282 N.am      2 UNK        -0.4546 
     35 C          26.7316   -2.4198   -0.3027 C.2       1 UNK         0.5154 
     36 O          26.1237   -3.3301    0.2714 O.2       1 UNK        -0.5181 
     37 C          27.7776   -0.0201   -6.9384 C.2       5 UNK         0.5014 
     38 O          28.6169    0.4771   -7.6898 O.2       5 UNK        -0.5248 
     39 N          27.0782    0.6795   -6.0324 N.am      6 UNK        -0.4434 
     40 CA         27.1691    2.1307   -5.8612 C.3       6 UNK         0.0363 
     41 CB         26.3704    2.5603   -4.6209 C.3       6 UNK        -0.1936 
     42 C          26.7115    2.9070   -7.1083 C.2       6 UNK         0.5081 
     43 O          27.4038    3.8363   -7.5225 O.2       6 UNK        -0.5248 
     44 N          25.5829    2.4954   -7.7051 N.am      7 UNK        -0.4718 
     45 CA         25.0380    3.0645   -8.9420 C.3       7 UNK         0.0273 
     46 CB         23.6276    2.5077   -9.1923 C.3       7 UNK        -0.1935 
     47 C          25.9392    2.8241  -10.1644 C.2       7 UNK         0.5018 
     48 O          26.1090    3.7339  -10.9769 O.2       7 UNK        -0.5186 
     49 N          26.5173    1.6186  -10.2624 N.am      8 UNK        -0.4240 
     50 CA         27.4835    1.2438  -11.2993 C.3       8 UNK         0.0235 
     51 CB         27.6118   -0.2884  -11.3312 C.3       8 UNK        -0.2000 
     52 C          28.8729    1.8827  -11.1133 C.2       8 UNK         0.4941 
     53 O          29.6515    1.8913  -12.0676 O.2       8 UNK        -0.5273 
     54 N          29.1674    2.3661   -9.8961 N.am      9 UNK        -0.4262 
     55 CA         30.4692    2.8355   -9.4069 C.3       9 UNK         0.0264 
     56 CB         30.9150    4.1187  -10.1396 C.3       9 UNK        -0.1955 
     57 C          31.5281    1.7146   -9.4323 C.2       9 UNK         0.5031 
     58 O          32.6746    1.9476   -9.8244 O.2       9 UNK        -0.5390 
     59 N          31.1117    0.5059   -9.0318 N.am      10 UNK        -0.4204 
     60 CA         31.9451   -0.6939   -8.9924 C.3       10 UNK         0.0237 
     61 CB         31.0471   -1.9320   -8.8417 C.3       10 UNK        -0.1985 
     62 C          32.9696   -0.6250   -7.8506 C.2       10 UNK         0.4970 
     63 O          32.6546   -0.1062   -6.7770 O.2       10 UNK        -0.4914 
     64 N          34.1648   -1.1690   -8.1108 N.am      11 UNK        -0.4285 
     65 CA         35.3036   -1.2557   -7.1777 C.3       11 UNK         0.1007 
     66 C          35.9367    0.1152   -6.7826 C.2       11 UNK         0.5703 
     67 N          35.6366    1.2103   -7.4720 N.am      11 UNK        -0.7361 
     68 O          36.7459    0.1852   -5.8602 O.2       11 UNK        -0.4986 
     69 C69        35.0081   -2.1586   -5.9446 C.3       12 UNK        -0.0947 
     70 S70        34.5002   -3.8473   -6.4150 S.3       12 UNK        -0.2240 
     71 C71        34.0211   -4.5392   -4.8020 C.3       12 UNK         0.0194 
     72 H72        27.7179   -1.3993    4.8759 H         1 UNK         0.0906 
     73 H73        29.2286   -2.2901    4.6709 H         1 UNK         0.0906 
     74 H74        27.6976   -3.0280    4.1966 H         1 UNK         0.0906 
     75 H75        27.3396   -2.9888    1.9605 H         1 UNK         0.3140 
     76 H76        27.6787   -0.6484    0.4095 H         1 UNK         0.1085 
     77 H77        29.3397   -2.9749   -0.6853 H         1 UNK         0.0836 
     78 H78        30.0778   -1.9060    0.4682 H         1 UNK         0.0836 
     79 H79        31.7622   -0.4351   -2.6146 H         1 UNK         0.0731 
     80 H80        31.9107   -1.4700   -1.2165 H         1 UNK         0.0731 
     81 H81        33.4709   -2.4783   -3.1043 H         1 UNK         0.1312 
     82 H82        31.5575   -5.4715   -5.5045 H         1 UNK         0.1406 
     83 H83        29.1894   -2.7907   -3.1669 H         1 UNK         0.1631 
     84 H84        28.1926   -4.8075   -4.1116 H         1 UNK         0.0717 
     85 H85        29.1414   -5.9162   -5.0568 H         1 UNK         0.0717 
     86 H86        27.8265   -2.1973   -5.0137 H         1 UNK         0.0934 
     87 H87        29.2935   -1.9641   -5.9279 H         1 UNK         0.0934 
     88 H88        27.8215   -1.8297   -8.0472 H         1 UNK         0.0739 
     89 H89        25.7008   -2.2697   -6.1781 H         1 UNK         0.3093 
     90 H90        23.0698   -1.0504   -8.2765 H         1 UNK         0.0818 
     91 H91        23.5863   -3.4025   -8.9526 H         1 UNK         0.0819 
     92 H92        23.8769   -3.8383   -7.2747 H         1 UNK         0.0819 
     93 H93        22.2664   -3.3447   -7.7975 H         1 UNK         0.0819 
     94 H94        23.0449   -2.1305   -5.6354 H         1 UNK         0.3041 
     95 H95        23.4222    0.9552   -3.8832 H         1 UNK         0.0784 
     96 H96        21.0303    0.8899   -4.6118 H         1 UNK         0.0793 
     97 H97        20.9713   -0.8399   -4.3030 H         1 UNK         0.0793 
     98 H98        21.2206    0.2920   -2.9731 H         1 UNK         0.0793 
     99 H99        22.8910   -1.6063   -2.8657 H         1 UNK         0.3024 
    100 H100       24.4199   -2.5953   -1.5953 H         1 UNK         0.1171 
    101 H101       24.6518   -4.0909   -3.5584 H         1 UNK         0.0786 
    102 H102       26.3055   -3.5659   -3.8203 H         1 UNK         0.0786 
    103 H103       25.8934   -4.5110   -2.3904 H         1 UNK         0.0786 
    104 H104       26.9438   -1.2303   -1.9510 H         1 UNK         0.2977 
    105 H105       26.4517    0.1843   -5.4016 H         1 UNK         0.3127 
    106 H106       28.2195    2.3742   -5.6875 H         1 UNK         0.0770 
    107 H107       25.3089    2.3368   -4.7265 H         1 UNK         0.0814 
    108 H108       26.4627    3.6337   -4.4507 H         1 UNK         0.0814 
    109 H109       26.7302    2.0562   -3.7236 H         1 UNK         0.0814 
    110 H110       25.0364    1.7570   -7.2665 H         1 UNK         0.2983 
    111 H111       24.9573    4.1447   -8.8023 H         1 UNK         0.0947 
    112 H112       23.1985    2.9221  -10.1056 H         1 UNK         0.0806 
    113 H113       22.9525    2.7585   -8.3740 H         1 UNK         0.0806 
    114 H114       23.6356    1.4219   -9.2966 H         1 UNK         0.0806 
    115 H115       26.2631    0.8969   -9.5921 H         1 UNK         0.3000 
    116 H116       27.0969    1.5765  -12.2649 H         1 UNK         0.0850 
    117 H117       28.3013   -0.6094  -12.1132 H         1 UNK         0.0810 
    118 H118       26.6510   -0.7630  -11.5314 H         1 UNK         0.0810 
    119 H119       27.9866   -0.6789  -10.3842 H         1 UNK         0.0810 
    120 H120       28.4569    2.2687   -9.1810 H         1 UNK         0.3040 
    121 H121       30.3215    3.0899   -8.3561 H         1 UNK         0.0766 
    122 H122       31.1412    3.9303  -11.1894 H         1 UNK         0.0812 
    123 H123       31.8149    4.5335   -9.6842 H         1 UNK         0.0812 
    124 H124       30.1442    4.8879  -10.0941 H         1 UNK         0.0812 
    125 H125       30.1761    0.4319   -8.6337 H         1 UNK         0.3205 
    126 H126       32.4755   -0.7656   -9.9446 H         1 UNK         0.0754 
    127 H127       31.6374   -2.8491   -8.8625 H         1 UNK         0.0769 
    128 H128       30.3156   -1.9962   -9.6475 H         1 UNK         0.0769 
    129 H129       30.5058   -1.9189   -7.8969 H         1 UNK         0.0769 
    130 H130       34.3290   -1.5647   -9.0250 H         1 UNK         0.2981 
    131 H131       36.0916   -1.7506   -7.7462 H         1 UNK         0.0541 
    132 H132       36.0634    2.0861   -7.2151 H         1 UNK         0.3459 
    133 H133       34.9712    1.1751   -8.2288 H         1 UNK         0.3459 
    134 H134       34.2333   -1.7075   -5.3250 H         1 UNK         0.0612 
    135 H135       35.8927   -2.2504   -5.3122 H         1 UNK         0.0612 
    136 H136       33.9958   -5.6269   -4.8829 H         1 UNK         0.0624 
    137 H137       34.7887   -4.3077   -4.0619 H         1 UNK         0.0624 
@<TRIPOS>BOND
     1    1    2 1    
     2    1   72 1    
     3    1   73 1    
     4    1   74 1    
     5    2    3 2    
     6    2    4 am   BACKBONE|DICT|INTERRES
     7    4    5 1    
     8    4   75 1    
     9    5    6 1    
    10    5   35 1    
    11    5   76 1    
    12    6    7 1    
    13    6   77 1    
    14    6   78 1    
    15    7    8 1    
    16    8    9 1    
    17    8   79 1    
    18    8   80 1    
    19    9   10 ar   
    20    9   14 ar   
    21   10   11 ar   
    22   10   81 1    
    23   11   12 ar   
    24   11   71 1    
    25   12   13 ar   
    26   12   82 1    
    27   13   14 ar   
    28   13   15 1    
    29   14   83 1    
    30   15   16 1    
    31   15   84 1    
    32   15   85 1    
    33   16   17 1    
    34   17   18 1    
    35   17   86 1    
    36   17   87 1    
    37   18   19 1    
    38   18   37 1    
    39   18   88 1    
    40   19   20 am   BACKBONE|DICT|INTERRES
    41   19   89 1    
    42   20   21 2    
    43   20   22 1    
    44   22   23 1    
    45   22   24 1    
    46   22   90 1    
    47   23   91 1    
    48   23   92 1    
    49   23   93 1    
    50   24   25 am   BACKBONE|DICT|INTERRES
    51   24   94 1    
    52   25   26 2    
    53   25   27 1    
    54   27   28 1    
    55   27   29 1    
    56   27   95 1    
    57   28   96 1    
    58   28   97 1    
    59   28   98 1    
    60   29   30 am   BACKBONE|DICT|INTERRES
    61   29   99 1    
    62   30   31 2    
    63   30   32 1    
    64   32   33 1    
    65   32   34 1    
    66   32  100 1    
    67   33  101 1    
    68   33  102 1    
    69   33  103 1    
    70   34   35 am   BACKBONE|DICT|INTERRES
    71   34  104 1    
    72   35   36 2    
    73   37   38 2    
    74   37   39 am   BACKBONE|DICT|INTERRES
    75   39   40 1    
    76   39  105 1    
    77   40   41 1    
    78   40   42 1    
    79   40  106 1    
    80   41  107 1    
    81   41  108 1    
    82   41  109 1    
    83   42   43 2    
    84   42   44 am   BACKBONE|DICT|INTERRES
    85   44   45 1    
    86   44  110 1    
    87   45   46 1    
    88   45   47 1    
    89   45  111 1    
    90   46  112 1    
    91   46  113 1    
    92   46  114 1    
    93   47   48 2    
    94   47   49 am   BACKBONE|DICT|INTERRES
    95   49   50 1    
    96   49  115 1    
    97   50   51 1    
    98   50   52 1    
    99   50  116 1    
   100   51  117 1    
   101   51  118 1    
   102   51  119 1    
   103   52   53 2    
   104   52   54 am   BACKBONE|DICT|INTERRES
   105   54   55 1    
   106   54  120 1    
   107   55   56 1    
   108   55   57 1    
   109   55  121 1    
   110   56  122 1    
   111   56  123 1    
   112   56  124 1    
   113   57   58 2    
   114   57   59 am   BACKBONE|DICT|INTERRES
   115   59   60 1    
   116   59  125 1    
   117   60   61 1    
   118   60   62 1    
   119   60  126 1    
   120   61  127 1    
   121   61  128 1    
   122   61  129 1    
   123   62   63 2    
   124   62   64 am   BACKBONE|DICT|INTERRES
   125   64   65 1    
   126   64  130 1    
   127   65   66 1    
   128   65   69 1    
   129   65  131 1    
   130   66   67 am   BACKBONE|DICT|INTERRES
   131   66   68 2    
   132   67  132 1    
   133   67  133 1    
   134   69   70 1    
   135   69  134 1    
   136   69  135 1    
   137   70   71 1    
   138   71  136 1    
   139   71  137 1    
@<TRIPOS>SUBSTRUCTURE
     1 UNK         1 GROUP             0       ****    0 ROOT    
