@<TRIPOS>MOLECULE
3R137
137   139    1
SMALL
USER_CHARGES


@<TRIPOS>ATOM
      1 CA         28.7363   -4.4834   -3.8755 C.3       0 UNK        -0.2020 
      2 C          27.9237   -4.0946   -2.6529 C.2       0 UNK         0.4855 
      3 O          26.8117   -4.5915   -2.4644 O.2       0 UNK        -0.5197 
      4 N          28.4620   -3.1967   -1.8170 N.am      1 UNK        -0.4892 
      5 CA         27.8630   -2.7347   -0.5545 C.3       1 UNK         0.0835 
      6 C6         28.9273   -2.2108    0.4474 C.3       12 UNK        -0.0855 
      7 S7         30.2755   -3.4089    0.7489 S.3       12 UNK        -0.2931 
      8 C8         31.7401   -2.5121    0.1346 C.3       12 UNK         0.0378 
      9 C9         31.6640   -2.2368   -1.3610 C.ar      12 UNK        -0.0802 
     10 C10        31.9768   -3.2423   -2.2819 C.ar      12 UNK        -0.0944 
     11 C11        31.9034   -2.9906   -3.6554 C.ar      12 UNK        -0.0787 
     12 C12        31.4977   -1.7303   -4.1032 C.ar      12 UNK        -0.0862 
     13 C13        31.1973   -0.7137   -3.1941 C.ar      12 UNK        -0.0733 
     14 C14        31.2932   -0.9702   -1.8242 C.ar      12 UNK        -0.0832 
     15 C15        30.8006    0.6696   -3.6915 C.3       12 UNK         0.0240 
     16 S16        29.1094    1.1323   -3.2022 S.3       12 UNK        -0.2522 
     17 C17        28.0947    0.0002   -4.2095 C.3       12 UNK        -0.0967 
     18 CA         27.7559    0.5366   -5.6239 C.3       5 UNK         0.0660 
     19 N          27.1349   -0.5149   -6.4311 N.am      5 UNK        -0.4015 
     20 C          26.7114   -0.4347   -7.6981 C.2       4 UNK         0.4946 
     21 O          26.8364    0.5736   -8.3939 O.2       4 UNK        -0.5353 
     22 CA         25.9666   -1.6595   -8.2723 C.3       4 UNK         0.0277 
     23 CB         26.9457   -2.6807   -8.8820 C.3       4 UNK        -0.1981 
     24 N          25.0429   -2.3070   -7.3232 N.am      4 UNK        -0.4209 
     25 C          25.3425   -2.9562   -6.1889 C.2       3 UNK         0.4942 
     26 O          26.4921   -3.1519   -5.7900 O.2       3 UNK        -0.5208 
     27 CA         24.1622   -3.3911   -5.3070 C.3       3 UNK         0.0250 
     28 CB         24.0514   -4.9236   -5.2700 C.3       3 UNK        -0.1990 
     29 N          24.3098   -2.8829   -3.9397 N.am      3 UNK        -0.4232 
     30 C          24.4068   -1.5855   -3.6070 C.2       2 UNK         0.4993 
     31 O          24.3431   -0.6624   -4.4191 O.2       2 UNK        -0.5286 
     32 CA         24.6715   -1.2627   -2.1337 C.3       2 UNK         0.0209 
     33 CB         23.4102   -1.4563   -1.2753 C.3       2 UNK        -0.1931 
     34 N          25.7630   -2.0959   -1.6362 N.am      2 UNK        -0.4546 
     35 C          26.7343   -1.7066   -0.8061 C.2       1 UNK         0.5154 
     36 O          26.7704   -0.5934   -0.2783 O.2       1 UNK        -0.5181 
     37 C          26.9092    1.8289   -5.5862 C.2       5 UNK         0.5014 
     38 O          27.4534    2.9108   -5.8108 O.2       5 UNK        -0.5248 
     39 N          25.5888    1.7006   -5.3801 N.am      6 UNK        -0.4434 
     40 CA         24.6325    2.8153   -5.3916 C.3       6 UNK         0.0363 
     41 CB         23.2659    2.3199   -4.8926 C.3       6 UNK        -0.1936 
     42 C          24.4834    3.5094   -6.7603 C.2       6 UNK         0.5081 
     43 O          24.0683    4.6676   -6.8011 O.2       6 UNK        -0.5248 
     44 N          24.8373    2.8109   -7.8477 N.am      7 UNK        -0.4718 
     45 CA         24.8871    3.3436   -9.2121 C.3       7 UNK         0.0273 
     46 CB         24.3987    2.2548  -10.1850 C.3       7 UNK        -0.1935 
     47 C          26.2980    3.8352   -9.5952 C.2       7 UNK         0.5018 
     48 O          26.5008    4.2145  -10.7492 O.2       7 UNK        -0.5186 
     49 N          27.2452    3.8026   -8.6428 N.am      8 UNK        -0.4240 
     50 CA         28.6707    4.1302   -8.7689 C.3       8 UNK         0.0235 
     51 CB         28.8784    5.6011   -9.1890 C.3       8 UNK        -0.2000 
     52 C          29.4678    3.1444   -9.6464 C.2       8 UNK         0.4941 
     53 O          30.5948    3.4581  -10.0342 O.2       8 UNK        -0.5273 
     54 N          28.9147    1.9529   -9.9098 N.am      9 UNK        -0.4262 
     55 CA         29.5615    0.8713  -10.6514 C.3       9 UNK         0.0264 
     56 CB         28.4996    0.1406  -11.4939 C.3       9 UNK        -0.1955 
     57 C          30.2935   -0.0511   -9.6632 C.2       9 UNK         0.5031 
     58 O          29.9373   -1.2217   -9.5204 O.2       9 UNK        -0.5390 
     59 N          31.2765    0.5177   -8.9545 N.am      10 UNK        -0.4204 
     60 CA         32.0513   -0.1546   -7.9125 C.3       10 UNK         0.0237 
     61 CB         32.8593    0.8950   -7.1318 C.3       10 UNK        -0.1985 
     62 C          32.9776   -1.2500   -8.4693 C.2       10 UNK         0.4970 
     63 O          33.4379   -1.1535   -9.6098 O.2       10 UNK        -0.4914 
     64 N          33.2504   -2.2529   -7.6285 N.am      11 UNK        -0.4285 
     65 CA         34.1985   -3.3462   -7.8773 C.3       11 UNK         0.1007 
     66 C          35.6801   -2.8747   -7.9424 C.2       11 UNK         0.5703 
     67 N          36.5428   -3.6412   -8.5964 N.am      11 UNK        -0.7361 
     68 O          36.0603   -1.8432   -7.3902 O.2       11 UNK        -0.4986 
     69 C69        33.9930   -4.5070   -6.8626 C.3       12 UNK        -0.0947 
     70 S70        34.0243   -3.9765   -5.1118 S.3       12 UNK        -0.2240 
     71 C71        32.2626   -4.0715   -4.6627 C.3       12 UNK         0.0194 
     72 H72        28.1251   -5.0522   -4.5761 H         1 UNK         0.0906 
     73 H73        29.0997   -3.5981   -4.3960 H         1 UNK         0.0906 
     74 H74        29.5861   -5.1000   -3.5859 H         1 UNK         0.0906 
     75 H75        29.3826   -2.8249   -2.0129 H         1 UNK         0.3140 
     76 H76        27.3849   -3.5956   -0.0810 H         1 UNK         0.1085 
     77 H77        28.4577   -1.9989    1.4098 H         1 UNK         0.0836 
     78 H78        29.3415   -1.2605    0.1106 H         1 UNK         0.0836 
     79 H79        32.6309   -3.1045    0.3490 H         1 UNK         0.0731 
     80 H80        31.8542   -1.5820    0.6937 H         1 UNK         0.0731 
     81 H81        32.2805   -4.2185   -1.9286 H         1 UNK         0.1312 
     82 H82        31.4280   -1.5371   -5.1620 H         1 UNK         0.1406 
     83 H83        31.0689   -0.1794   -1.1207 H         1 UNK         0.1631 
     84 H84        30.8871    0.7380   -4.7764 H         1 UNK         0.0717 
     85 H85        31.4964    1.4038   -3.2833 H         1 UNK         0.0717 
     86 H86        27.1795   -0.2098   -3.6543 H         1 UNK         0.0934 
     87 H87        28.6128   -0.9568   -4.2846 H         1 UNK         0.0934 
     88 H88        28.6934    0.7848   -6.1256 H         1 UNK         0.0739 
     89 H89        26.9868   -1.4129   -5.9751 H         1 UNK         0.3093 
     90 H90        25.3393   -1.2861   -9.0834 H         1 UNK         0.0818 
     91 H91        27.4943   -2.2448   -9.7156 H         1 UNK         0.0819 
     92 H92        27.6852   -3.0241   -8.1578 H         1 UNK         0.0819 
     93 H93        26.4209   -3.5551   -9.2665 H         1 UNK         0.0819 
     94 H94        24.0632   -2.1679   -7.5306 H         1 UNK         0.3041 
     95 H95        23.2358   -2.9832   -5.7166 H         1 UNK         0.0784 
     96 H96        23.9318   -5.3314   -6.2747 H         1 UNK         0.0793 
     97 H97        24.9429   -5.3801   -4.8364 H         1 UNK         0.0793 
     98 H98        23.1900   -5.2466   -4.6850 H         1 UNK         0.0793 
     99 H99        24.3977   -3.5814   -3.2166 H         1 UNK         0.3024 
    100 H100       24.9654   -0.2111   -2.0850 H         1 UNK         0.1171 
    101 H101       23.5855   -1.1487   -0.2442 H         1 UNK         0.0786 
    102 H102       22.5834   -0.8554   -1.6564 H         1 UNK         0.0786 
    103 H103       23.0821   -2.4962   -1.2619 H         1 UNK         0.0786 
    104 H104       25.8795   -3.0146   -2.0583 H         1 UNK         0.2977 
    105 H105       25.2015    0.7794   -5.1772 H         1 UNK         0.3127 
    106 H106       24.9970    3.5680   -4.6893 H         1 UNK         0.0770 
    107 H107       22.8636    1.5354   -5.5348 H         1 UNK         0.0814 
    108 H108       22.5374    3.1317   -4.8715 H         1 UNK         0.0814 
    109 H109       23.3340    1.9214   -3.8802 H         1 UNK         0.0814 
    110 H110       25.2194    1.8808   -7.7256 H         1 UNK         0.2983 
    111 H111       24.2155    4.2003   -9.3003 H         1 UNK         0.0947 
    112 H112       25.0664    1.3930  -10.1994 H         1 UNK         0.0806 
    113 H113       24.3432    2.6378  -11.2049 H         1 UNK         0.0806 
    114 H114       23.4017    1.9033   -9.9194 H         1 UNK         0.0806 
    115 H115       26.9778    3.4610   -7.7251 H         1 UNK         0.3000 
    116 H116       29.0829    4.0211   -7.7647 H         1 UNK         0.0850 
    117 H117       29.9286    5.8852   -9.1109 H         1 UNK         0.0810 
    118 H118       28.3132    6.2800   -8.5506 H         1 UNK         0.0810 
    119 H119       28.5739    5.7767  -10.2210 H         1 UNK         0.0810 
    120 H120       28.0314    1.7138   -9.4658 H         1 UNK         0.3040 
    121 H121       30.3079    1.2752  -11.3388 H         1 UNK         0.0766 
    122 H122       28.9331   -0.7090  -12.0229 H         1 UNK         0.0812 
    123 H123       28.0691    0.8048  -12.2433 H         1 UNK         0.0812 
    124 H124       27.6826   -0.2350  -10.8788 H         1 UNK         0.0812 
    125 H125       31.5125    1.4802   -9.1589 H         1 UNK         0.3205 
    126 H126       31.3341   -0.6197   -7.2346 H         1 UNK         0.0754 
    127 H127       33.4004    0.4375   -6.3021 H         1 UNK         0.0769 
    128 H128       32.2127    1.6651   -6.7106 H         1 UNK         0.0769 
    129 H129       33.5963    1.3881   -7.7673 H         1 UNK         0.0769 
    130 H130       32.8897   -2.2189   -6.6887 H         1 UNK         0.2981 
    131 H131       33.9603   -3.7392   -8.8678 H         1 UNK         0.0541 
    132 H132       37.5097   -3.3596   -8.6422 H         1 UNK         0.3459 
    133 H133       36.2481   -4.4937   -9.0469 H         1 UNK         0.3459 
    134 H134       33.0454   -5.0060   -7.0697 H         1 UNK         0.0612 
    135 H135       34.7534   -5.2780   -6.9988 H         1 UNK         0.0612 
    136 H136       32.0508   -5.0618   -4.2570 H         1 UNK         0.0624 
    137 H137       31.6363   -3.9619   -5.5493 H         1 UNK         0.0624 
@<TRIPOS>BOND
     1    1    2 1    
     2    1   72 1    
     3    1   73 1    
     4    1   74 1    
     5    2    3 2    
     6    2    4 am   BACKBONE|DICT|INTERRES
     7    4    5 1    
     8    4   75 1    
     9    5    6 1    
    10    5   35 1    
    11    5   76 1    
    12    6    7 1    
    13    6   77 1    
    14    6   78 1    
    15    7    8 1    
    16    8    9 1    
    17    8   79 1    
    18    8   80 1    
    19    9   10 ar   
    20    9   14 ar   
    21   10   11 ar   
    22   10   81 1    
    23   11   12 ar   
    24   11   71 1    
    25   12   13 ar   
    26   12   82 1    
    27   13   14 ar   
    28   13   15 1    
    29   14   83 1    
    30   15   16 1    
    31   15   84 1    
    32   15   85 1    
    33   16   17 1    
    34   17   18 1    
    35   17   86 1    
    36   17   87 1    
    37   18   19 1    
    38   18   37 1    
    39   18   88 1    
    40   19   20 am   BACKBONE|DICT|INTERRES
    41   19   89 1    
    42   20   21 2    
    43   20   22 1    
    44   22   23 1    
    45   22   24 1    
    46   22   90 1    
    47   23   91 1    
    48   23   92 1    
    49   23   93 1    
    50   24   25 am   BACKBONE|DICT|INTERRES
    51   24   94 1    
    52   25   26 2    
    53   25   27 1    
    54   27   28 1    
    55   27   29 1    
    56   27   95 1    
    57   28   96 1    
    58   28   97 1    
    59   28   98 1    
    60   29   30 am   BACKBONE|DICT|INTERRES
    61   29   99 1    
    62   30   31 2    
    63   30   32 1    
    64   32   33 1    
    65   32   34 1    
    66   32  100 1    
    67   33  101 1    
    68   33  102 1    
    69   33  103 1    
    70   34   35 am   BACKBONE|DICT|INTERRES
    71   34  104 1    
    72   35   36 2    
    73   37   38 2    
    74   37   39 am   BACKBONE|DICT|INTERRES
    75   39   40 1    
    76   39  105 1    
    77   40   41 1    
    78   40   42 1    
    79   40  106 1    
    80   41  107 1    
    81   41  108 1    
    82   41  109 1    
    83   42   43 2    
    84   42   44 am   BACKBONE|DICT|INTERRES
    85   44   45 1    
    86   44  110 1    
    87   45   46 1    
    88   45   47 1    
    89   45  111 1    
    90   46  112 1    
    91   46  113 1    
    92   46  114 1    
    93   47   48 2    
    94   47   49 am   BACKBONE|DICT|INTERRES
    95   49   50 1    
    96   49  115 1    
    97   50   51 1    
    98   50   52 1    
    99   50  116 1    
   100   51  117 1    
   101   51  118 1    
   102   51  119 1    
   103   52   53 2    
   104   52   54 am   BACKBONE|DICT|INTERRES
   105   54   55 1    
   106   54  120 1    
   107   55   56 1    
   108   55   57 1    
   109   55  121 1    
   110   56  122 1    
   111   56  123 1    
   112   56  124 1    
   113   57   58 2    
   114   57   59 am   BACKBONE|DICT|INTERRES
   115   59   60 1    
   116   59  125 1    
   117   60   61 1    
   118   60   62 1    
   119   60  126 1    
   120   61  127 1    
   121   61  128 1    
   122   61  129 1    
   123   62   63 2    
   124   62   64 am   BACKBONE|DICT|INTERRES
   125   64   65 1    
   126   64  130 1    
   127   65   66 1    
   128   65   69 1    
   129   65  131 1    
   130   66   67 am   BACKBONE|DICT|INTERRES
   131   66   68 2    
   132   67  132 1    
   133   67  133 1    
   134   69   70 1    
   135   69  134 1    
   136   69  135 1    
   137   70   71 1    
   138   71  136 1    
   139   71  137 1    
@<TRIPOS>SUBSTRUCTURE
     1 UNK         1 GROUP             0       ****    0 ROOT    
