@<TRIPOS>MOLECULE
3R137
137   139    1
SMALL
USER_CHARGES


@<TRIPOS>ATOM
      1 CA         26.8814   -4.9176   -9.1991 C.3       0 UNK        -0.2020 
      2 C          26.5203   -5.0990   -7.7327 C.2       0 UNK         0.4855 
      3 O          25.3433   -5.2544   -7.4054 O.2       0 UNK        -0.5197 
      4 N          27.5272   -5.1117   -6.8515 N.am      1 UNK        -0.4892 
      5 CA         27.3734   -5.3171   -5.4092 C.3       1 UNK         0.0835 
      6 C6         28.6925   -5.8211   -4.7675 C.3       12 UNK        -0.0855 
      7 S7         30.0815   -4.6330   -4.8578 S.3       12 UNK        -0.2931 
      8 C8         30.6139   -4.5090   -3.1173 C.3       12 UNK         0.0378 
      9 C9         30.7308   -3.0608   -2.6658 C.ar      12 UNK        -0.0802 
     10 C10        31.8047   -2.2781   -3.0995 C.ar      12 UNK        -0.0944 
     11 C11        31.9291   -0.9492   -2.6843 C.ar      12 UNK        -0.0787 
     12 C12        30.9905   -0.4152   -1.7970 C.ar      12 UNK        -0.0862 
     13 C13        29.9151   -1.1899   -1.3476 C.ar      12 UNK        -0.0733 
     14 C14        29.7846   -2.5086   -1.7957 C.ar      12 UNK        -0.0832 
     15 C15        28.9194   -0.6214   -0.3437 C.3       12 UNK         0.0240 
     16 S16        27.4277    0.0603   -1.1368 S.3       12 UNK        -0.2522 
     17 C17        28.0775    1.5713   -1.9283 C.3       12 UNK        -0.0967 
     18 CA         27.9555    1.5034   -3.4721 C.3       5 UNK         0.0660 
     19 N          26.5420    1.4848   -3.8828 N.am      5 UNK        -0.4015 
     20 C          26.0359    1.1258   -5.0691 C.2       4 UNK         0.4946 
     21 O          26.7159    0.8046   -6.0502 O.2       4 UNK        -0.5353 
     22 CA         24.5116    1.1076   -5.1787 C.3       4 UNK         0.0277 
     23 CB         24.0106    1.8255   -6.4457 C.3       4 UNK        -0.1981 
     24 N          24.1128   -0.2919   -5.1677 N.am      4 UNK        -0.4209 
     25 C          22.8924   -0.7587   -4.8784 C.2       3 UNK         0.4942 
     26 O          21.9024   -0.0471   -4.7036 O.2       3 UNK        -0.5208 
     27 CA         22.7663   -2.2846   -4.7164 C.3       3 UNK         0.0250 
     28 CB         22.4596   -2.9479   -6.0690 C.3       3 UNK        -0.1990 
     29 N          23.9725   -2.8899   -4.1436 N.am      3 UNK        -0.4232 
     30 C          24.4520   -2.6492   -2.9141 C.2       2 UNK         0.4993 
     31 O          23.8473   -1.9763   -2.0788 O.2       2 UNK        -0.5286 
     32 CA         25.8330   -3.2365   -2.5472 C.3       2 UNK         0.0209 
     33 CB         25.8522   -3.7840   -1.1081 C.3       2 UNK        -0.1931 
     34 N          26.3320   -4.2779   -3.4539 N.am      2 UNK        -0.4546 
     35 C          26.7977   -4.0749   -4.6938 C.2       1 UNK         0.5154 
     36 O          26.7644   -2.9765   -5.2545 O.2       1 UNK        -0.5181 
     37 C          28.7963    2.5930   -4.1850 C.2       5 UNK         0.5014 
     38 O          29.5639    3.3096   -3.5406 O.2       5 UNK        -0.5248 
     39 N          28.6342    2.6832   -5.5063 N.am      6 UNK        -0.4434 
     40 CA         29.3494    3.5211   -6.4571 C.3       6 UNK         0.0363 
     41 CB         29.1630    5.0267   -6.1714 C.3       6 UNK        -0.1936 
     42 C          28.8486    3.1445   -7.8534 C.2       6 UNK         0.5081 
     43 O          29.6024    2.5657   -8.6316 O.2       6 UNK        -0.5248 
     44 N          27.5733    3.4493   -8.1341 N.am      7 UNK        -0.4718 
     45 CA         26.9533    3.2984   -9.4550 C.3       7 UNK         0.0273 
     46 CB         25.5824    3.9937   -9.4622 C.3       7 UNK        -0.1935 
     47 C          26.8258    1.8459   -9.9454 C.2       7 UNK         0.5018 
     48 O          26.9761    1.6104  -11.1452 O.2       7 UNK        -0.5186 
     49 N          26.5541    0.9089   -9.0275 N.am      8 UNK        -0.4240 
     50 CA         26.4829   -0.5240   -9.3217 C.3       8 UNK         0.0235 
     51 CB         25.3239   -1.1657   -8.5384 C.3       8 UNK        -0.2000 
     52 C          27.8135   -1.2026   -8.9776 C.2       8 UNK         0.4941 
     53 O          28.3187   -1.9880   -9.7790 O.2       8 UNK        -0.5273 
     54 N          28.3524   -0.8842   -7.7936 N.am      9 UNK        -0.4262 
     55 CA         29.5593   -1.4889   -7.2324 C.3       9 UNK         0.0264 
     56 CB         29.6958   -1.0414   -5.7741 C.3       9 UNK        -0.1955 
     57 C          30.8624   -1.1820   -7.9905 C.2       9 UNK         0.5031 
     58 O          31.7908   -1.9894   -7.9187 O.2       9 UNK        -0.5390 
     59 N          30.9392   -0.0189   -8.6564 N.am      10 UNK        -0.4204 
     60 CA         32.0954    0.5640   -9.3564 C.3       10 UNK         0.0237 
     61 CB         32.6120   -0.3464  -10.4882 C.3       10 UNK        -0.1985 
     62 C          33.2314    1.0047   -8.4146 C.2       10 UNK         0.4970 
     63 O          33.6891    2.1427   -8.5212 O.2       10 UNK        -0.4914 
     64 N          33.6488    0.1092   -7.5117 N.am      11 UNK        -0.4285 
     65 CA         34.6442    0.3167   -6.4445 C.3       11 UNK         0.1007 
     66 C          36.0965    0.5912   -6.9416 C.2       11 UNK         0.5703 
     67 N          36.4371    0.2821   -8.1871 N.am      11 UNK        -0.7361 
     68 O          36.9419    1.0572   -6.1812 O.2       11 UNK        -0.4986 
     69 C69        34.1704    1.3321   -5.3619 C.3       12 UNK        -0.0947 
     70 S70        32.5554    0.8851   -4.6415 S.3       12 UNK        -0.2240 
     71 C71        33.0758   -0.0937   -3.1998 C.3       12 UNK         0.0194 
     72 H72        26.3114   -4.0994   -9.6358 H         1 UNK         0.0906 
     73 H73        27.9408   -4.6984   -9.3325 H         1 UNK         0.0906 
     74 H74        26.6504   -5.8252   -9.7557 H         1 UNK         0.0906 
     75 H75        28.4723   -4.9337   -7.1598 H         1 UNK         0.3140 
     76 H76        26.6340   -6.1117   -5.2818 H         1 UNK         0.1085 
     77 H77        29.0107   -6.7354   -5.2709 H         1 UNK         0.0836 
     78 H78        28.5116   -6.1217   -3.7351 H         1 UNK         0.0836 
     79 H79        31.5826   -4.9997   -3.0131 H         1 UNK         0.0731 
     80 H80        29.9354   -5.0488   -2.4567 H         1 UNK         0.0731 
     81 H81        32.5310   -2.6996   -3.7812 H         1 UNK         0.1312 
     82 H82        31.1035    0.6052   -1.4589 H         1 UNK         0.1406 
     83 H83        28.9556   -3.1104   -1.4507 H         1 UNK         0.1631 
     84 H84        29.3905    0.1483    0.2696 H         1 UNK         0.0717 
     85 H85        28.6134   -1.4076    0.3481 H         1 UNK         0.0717 
     86 H86        27.5356    2.4346   -1.5380 H         1 UNK         0.0934 
     87 H87        29.1120    1.7138   -1.6169 H         1 UNK         0.0934 
     88 H88        28.3921    0.5534   -3.7834 H         1 UNK         0.0739 
     89 H89        25.8918    1.7296   -3.1503 H         1 UNK         0.3093 
     90 H90        24.0839    1.6045   -4.3051 H         1 UNK         0.0818 
     91 H91        24.3717    2.8538   -6.4758 H         1 UNK         0.0819 
     92 H92        24.3431    1.3302   -7.3559 H         1 UNK         0.0819 
     93 H93        22.9219    1.8672   -6.4733 H         1 UNK         0.0819 
     94 H94        24.8702   -0.9541   -5.2833 H         1 UNK         0.3041 
     95 H95        21.9346   -2.4802   -4.0363 H         1 UNK         0.0784 
     96 H96        21.5614   -2.5219   -6.5184 H         1 UNK         0.0793 
     97 H97        23.2759   -2.8146   -6.7804 H         1 UNK         0.0793 
     98 H98        22.2880   -4.0185   -5.9559 H         1 UNK         0.0793 
     99 H99        24.5523   -3.4279   -4.7724 H         1 UNK         0.3024 
    100 H100       26.5345   -2.4007   -2.5960 H         1 UNK         0.1171 
    101 H101       25.1288   -4.5893   -0.9751 H         1 UNK         0.0786 
    102 H102       26.8356   -4.1678   -0.8374 H         1 UNK         0.0786 
    103 H103       25.6075   -3.0024   -0.3872 H         1 UNK         0.0786 
    104 H104       26.3512   -5.2150   -3.0776 H         1 UNK         0.2977 
    105 H105       27.9728    2.0252   -5.9184 H         1 UNK         0.3127 
    106 H106       30.4121    3.2767   -6.4000 H         1 UNK         0.0770 
    107 H107       29.5736    5.6311   -6.9813 H         1 UNK         0.0814 
    108 H108       29.6814    5.3257   -5.2608 H         1 UNK         0.0814 
    109 H109       28.1135    5.2978   -6.0576 H         1 UNK         0.0814 
    110 H110       27.0223    3.9110   -7.4254 H         1 UNK         0.2983 
    111 H111       27.5941    3.8179  -10.1714 H         1 UNK         0.0947 
    112 H112       25.1235    3.9382  -10.4504 H         1 UNK         0.0806 
    113 H113       25.6703    5.0502   -9.2084 H         1 UNK         0.0806 
    114 H114       24.8893    3.5341   -8.7583 H         1 UNK         0.0806 
    115 H115       26.4846    1.1784   -8.0531 H         1 UNK         0.3000 
    116 H116       26.2894   -0.6810  -10.3852 H         1 UNK         0.0850 
    117 H117       25.4902   -1.1315   -7.4625 H         1 UNK         0.0810 
    118 H118       25.2032   -2.2144   -8.8079 H         1 UNK         0.0810 
    119 H119       24.3766   -0.6708   -8.7510 H         1 UNK         0.0810 
    120 H120       27.8249   -0.2749   -7.1753 H         1 UNK         0.3040 
    121 H121       29.4213   -2.5718   -7.2436 H         1 UNK         0.0766 
    122 H122       28.8423   -1.3547   -5.1742 H         1 UNK         0.0812 
    123 H123       29.7978    0.0399   -5.6935 H         1 UNK         0.0812 
    124 H124       30.5825   -1.4845   -5.3255 H         1 UNK         0.0812 
    125 H125       30.1429    0.6093   -8.6037 H         1 UNK         0.3205 
    126 H126       31.7179    1.4720   -9.8287 H         1 UNK         0.0754 
    127 H127       33.3870    0.1580  -11.0668 H         1 UNK         0.0769 
    128 H128       31.8108   -0.6088  -11.1790 H         1 UNK         0.0769 
    129 H129       33.0441   -1.2730  -10.1101 H         1 UNK         0.0769 
    130 H130       33.1905   -0.7986   -7.5237 H         1 UNK         0.2981 
    131 H131       34.7201   -0.6518   -5.9500 H         1 UNK         0.0541 
    132 H132       35.7579   -0.1106   -8.8181 H         1 UNK         0.3459 
    133 H133       37.3808    0.4506   -8.4978 H         1 UNK         0.3459 
    134 H134       34.0877    2.3324   -5.7890 H         1 UNK         0.0612 
    135 H135       34.8980    1.4095   -4.5522 H         1 UNK         0.0612 
    136 H136       33.9192   -0.7292   -3.4742 H         1 UNK         0.0624 
    137 H137       33.4327    0.5766   -2.4166 H         1 UNK         0.0624 
@<TRIPOS>BOND
     1    1    2 1    
     2    1   72 1    
     3    1   73 1    
     4    1   74 1    
     5    2    3 2    
     6    2    4 am   BACKBONE|DICT|INTERRES
     7    4    5 1    
     8    4   75 1    
     9    5    6 1    
    10    5   35 1    
    11    5   76 1    
    12    6    7 1    
    13    6   77 1    
    14    6   78 1    
    15    7    8 1    
    16    8    9 1    
    17    8   79 1    
    18    8   80 1    
    19    9   10 ar   
    20    9   14 ar   
    21   10   11 ar   
    22   10   81 1    
    23   11   12 ar   
    24   11   71 1    
    25   12   13 ar   
    26   12   82 1    
    27   13   14 ar   
    28   13   15 1    
    29   14   83 1    
    30   15   16 1    
    31   15   84 1    
    32   15   85 1    
    33   16   17 1    
    34   17   18 1    
    35   17   86 1    
    36   17   87 1    
    37   18   19 1    
    38   18   37 1    
    39   18   88 1    
    40   19   20 am   BACKBONE|DICT|INTERRES
    41   19   89 1    
    42   20   21 2    
    43   20   22 1    
    44   22   23 1    
    45   22   24 1    
    46   22   90 1    
    47   23   91 1    
    48   23   92 1    
    49   23   93 1    
    50   24   25 am   BACKBONE|DICT|INTERRES
    51   24   94 1    
    52   25   26 2    
    53   25   27 1    
    54   27   28 1    
    55   27   29 1    
    56   27   95 1    
    57   28   96 1    
    58   28   97 1    
    59   28   98 1    
    60   29   30 am   BACKBONE|DICT|INTERRES
    61   29   99 1    
    62   30   31 2    
    63   30   32 1    
    64   32   33 1    
    65   32   34 1    
    66   32  100 1    
    67   33  101 1    
    68   33  102 1    
    69   33  103 1    
    70   34   35 am   BACKBONE|DICT|INTERRES
    71   34  104 1    
    72   35   36 2    
    73   37   38 2    
    74   37   39 am   BACKBONE|DICT|INTERRES
    75   39   40 1    
    76   39  105 1    
    77   40   41 1    
    78   40   42 1    
    79   40  106 1    
    80   41  107 1    
    81   41  108 1    
    82   41  109 1    
    83   42   43 2    
    84   42   44 am   BACKBONE|DICT|INTERRES
    85   44   45 1    
    86   44  110 1    
    87   45   46 1    
    88   45   47 1    
    89   45  111 1    
    90   46  112 1    
    91   46  113 1    
    92   46  114 1    
    93   47   48 2    
    94   47   49 am   BACKBONE|DICT|INTERRES
    95   49   50 1    
    96   49  115 1    
    97   50   51 1    
    98   50   52 1    
    99   50  116 1    
   100   51  117 1    
   101   51  118 1    
   102   51  119 1    
   103   52   53 2    
   104   52   54 am   BACKBONE|DICT|INTERRES
   105   54   55 1    
   106   54  120 1    
   107   55   56 1    
   108   55   57 1    
   109   55  121 1    
   110   56  122 1    
   111   56  123 1    
   112   56  124 1    
   113   57   58 2    
   114   57   59 am   BACKBONE|DICT|INTERRES
   115   59   60 1    
   116   59  125 1    
   117   60   61 1    
   118   60   62 1    
   119   60  126 1    
   120   61  127 1    
   121   61  128 1    
   122   61  129 1    
   123   62   63 2    
   124   62   64 am   BACKBONE|DICT|INTERRES
   125   64   65 1    
   126   64  130 1    
   127   65   66 1    
   128   65   69 1    
   129   65  131 1    
   130   66   67 am   BACKBONE|DICT|INTERRES
   131   66   68 2    
   132   67  132 1    
   133   67  133 1    
   134   69   70 1    
   135   69  134 1    
   136   69  135 1    
   137   70   71 1    
   138   71  136 1    
   139   71  137 1    
@<TRIPOS>SUBSTRUCTURE
     1 UNK         1 GROUP             0       ****    0 ROOT    
