@<TRIPOS>MOLECULE
3R137
137   139    1
SMALL
USER_CHARGES


@<TRIPOS>ATOM
      1 CA         27.1290   -7.8716   -2.9336 C.3       0 UNK        -0.2020 
      2 C          27.3378   -6.3910   -2.6540 C.2       0 UNK         0.4855 
      3 O          27.0380   -5.5603   -3.5110 O.2       0 UNK        -0.5197 
      4 N          27.8305   -6.0536   -1.4533 N.am      1 UNK        -0.4892 
      5 CA         28.1513   -4.7064   -0.9478 C.3       1 UNK         0.0835 
      6 C6         29.1798   -3.9526   -1.8354 C.3       12 UNK        -0.0855 
      7 S7         30.2839   -2.8727   -0.8622 S.3       12 UNK        -0.2931 
      8 C8         31.7130   -2.7134   -1.9808 C.3       12 UNK         0.0378 
      9 C9         31.3648   -1.8864   -3.2091 C.ar      12 UNK        -0.0802 
     10 C10        31.4518   -0.4912   -3.1651 C.ar      12 UNK        -0.0944 
     11 C11        31.1131    0.2757   -4.2844 C.ar      12 UNK        -0.0787 
     12 C12        30.6646   -0.3623   -5.4444 C.ar      12 UNK        -0.0862 
     13 C13        30.5869   -1.7562   -5.5036 C.ar      12 UNK        -0.0733 
     14 C14        30.9496   -2.5143   -4.3872 C.ar      12 UNK        -0.0832 
     15 C15        30.1029   -2.4388   -6.7737 C.3       12 UNK         0.0240 
     16 S16        28.5327   -3.3425   -6.5551 S.3       12 UNK        -0.2522 
     17 C17        27.4783   -2.1996   -5.5935 C.3       12 UNK        -0.0967 
     18 CA         26.5814   -1.2908   -6.4717 C.3       5 UNK         0.0660 
     19 N          25.2737   -1.0614   -5.8467 N.am      5 UNK        -0.4015 
     20 C          24.2193   -0.5088   -6.4685 C.2       4 UNK         0.4946 
     21 O          24.2387   -0.1662   -7.6509 O.2       4 UNK        -0.5353 
     22 CA         22.9444   -0.2473   -5.6420 C.3       4 UNK         0.0277 
     23 CB         21.9114   -1.3586   -5.8895 C.3       4 UNK        -0.1981 
     24 N          23.1764   -0.1177   -4.2003 N.am      4 UNK        -0.4209 
     25 C          23.9543    0.8071   -3.6171 C.2       3 UNK         0.4942 
     26 O          24.5299    1.7023   -4.2347 O.2       3 UNK        -0.5208 
     27 CA         24.1854    0.6679   -2.1002 C.3       3 UNK         0.0250 
     28 CB         23.1771    1.5293   -1.3218 C.3       3 UNK        -0.1990 
     29 N          24.1320   -0.7165   -1.6073 N.am      3 UNK        -0.4232 
     30 C          24.9118   -1.7174   -2.0430 C.2       2 UNK         0.4993 
     31 O          25.7399   -1.5936   -2.9493 O.2       2 UNK        -0.5286 
     32 CA         24.6670   -3.0996   -1.4218 C.3       2 UNK         0.0209 
     33 CB         23.5429   -3.8295   -2.1768 C.3       2 UNK        -0.1931 
     34 N          25.8795   -3.9130   -1.4890 N.am      2 UNK        -0.4546 
     35 C          26.9091   -3.8366   -0.6386 C.2       1 UNK         0.5154 
     36 O          26.8927   -3.1391    0.3778 O.2       1 UNK        -0.5181 
     37 C          27.2914    0.0282   -6.8570 C.2       5 UNK         0.5014 
     38 O          28.0996    0.0304   -7.7866 O.2       5 UNK        -0.5248 
     39 N          26.9420    1.1504   -6.2059 N.am      6 UNK        -0.4434 
     40 CA         27.4326    2.4893   -6.5501 C.3       6 UNK         0.0363 
     41 CB         27.0162    3.4888   -5.4599 C.3       6 UNK        -0.1936 
     42 C          26.9824    2.9832   -7.9410 C.2       6 UNK         0.5081 
     43 O          27.6051    3.9039   -8.4684 O.2       6 UNK        -0.5248 
     44 N          25.9439    2.3651   -8.5290 N.am      7 UNK        -0.4718 
     45 CA         25.5368    2.5987   -9.9189 C.3       7 UNK         0.0273 
     46 CB         24.1110    2.0687  -10.1422 C.3       7 UNK        -0.1935 
     47 C          26.5141    1.9661  -10.9277 C.2       7 UNK         0.5018 
     48 O          26.6999    2.5229  -12.0104 O.2       7 UNK        -0.5186 
     49 N          27.1310    0.8330  -10.5544 N.am      8 UNK        -0.4240 
     50 CA         28.2261    0.2050  -11.2997 C.3       8 UNK         0.0235 
     51 CB         28.2925   -1.2956  -10.9673 C.3       8 UNK        -0.2000 
     52 C          29.5672    0.8935  -10.9960 C.2       8 UNK         0.4941 
     53 O          30.3914    1.0349  -11.8994 O.2       8 UNK        -0.5273 
     54 N          29.7427    1.3186   -9.7346 N.am      9 UNK        -0.4262 
     55 CA         30.8614    2.1008   -9.1934 C.3       9 UNK         0.0264 
     56 CB         30.9609    3.4800   -9.8787 C.3       9 UNK        -0.1955 
     57 C          32.2070    1.3515   -9.1753 C.2       9 UNK         0.5031 
     58 O          33.2615    1.9876   -9.1100 O.2       9 UNK        -0.5390 
     59 N          32.1634    0.0126   -9.1745 N.am      10 UNK        -0.4204 
     60 CA         33.3235   -0.8747   -9.0464 C.3       10 UNK         0.0237 
     61 CB         32.9829   -2.2329   -9.6894 C.3       10 UNK        -0.1985 
     62 C          33.7729   -1.0021   -7.5759 C.2       10 UNK         0.4970 
     63 O          33.8380   -2.1116   -7.0448 O.2       10 UNK        -0.4914 
     64 N          34.0367    0.1449   -6.9385 N.am      11 UNK        -0.4285 
     65 CA         34.3229    0.2715   -5.5005 C.3       11 UNK         0.1007 
     66 C          35.7445   -0.1903   -5.0682 C.2       11 UNK         0.5703 
     67 N          36.6685   -0.4555   -5.9865 N.am      11 UNK        -0.7361 
     68 O          36.0134   -0.3147   -3.8747 O.2       11 UNK        -0.4986 
     69 C69        34.0092    1.6975   -4.9588 C.3       12 UNK        -0.0947 
     70 S70        32.4126    2.3982   -5.5141 S.3       12 UNK        -0.2240 
     71 C71        31.2487    1.7910   -4.2501 C.3       12 UNK         0.0194 
     72 H72        27.7080   -8.1726   -3.8065 H         1 UNK         0.0906 
     73 H73        26.0770   -8.0695   -3.1383 H         1 UNK         0.0906 
     74 H74        27.4348   -8.4944   -2.0930 H         1 UNK         0.0906 
     75 H75        28.0126   -6.7954   -0.7902 H         1 UNK         0.3140 
     76 H76        28.6230   -4.8975    0.0182 H         1 UNK         0.1085 
     77 H77        28.6869   -3.3687   -2.6166 H         1 UNK         0.0836 
     78 H78        29.8095   -4.6739   -2.3588 H         1 UNK         0.0836 
     79 H79        32.5340   -2.2402   -1.4397 H         1 UNK         0.0731 
     80 H80        32.0713   -3.7032   -2.2694 H         1 UNK         0.0731 
     81 H81        31.7858   -0.0050   -2.2585 H         1 UNK         0.1312 
     82 H82        30.3938    0.2307   -6.3070 H         1 UNK         0.1406 
     83 H83        30.8819   -3.5929   -4.4315 H         1 UNK         0.1631 
     84 H84        30.8659   -3.1438   -7.1058 H         1 UNK         0.0717 
     85 H85        29.9880   -1.7189   -7.5836 H         1 UNK         0.0717 
     86 H86        26.8518   -2.8579   -4.9888 H         1 UNK         0.0934 
     87 H87        28.0514   -1.6273   -4.8625 H         1 UNK         0.0934 
     88 H88        26.3774   -1.8157   -7.4079 H         1 UNK         0.0739 
     89 H89        25.2130   -1.2791   -4.8558 H         1 UNK         0.3093 
     90 H90        22.5233    0.6976   -5.9920 H         1 UNK         0.0818 
     91 H91        21.6972   -1.4623   -6.9547 H         1 UNK         0.0819 
     92 H92        22.2660   -2.3268   -5.5331 H         1 UNK         0.0819 
     93 H93        20.9656   -1.1413   -5.3918 H         1 UNK         0.0819 
     94 H94        22.7457   -0.8124   -3.6082 H         1 UNK         0.3041 
     95 H95        25.1895    1.0460   -1.8938 H         1 UNK         0.0784 
     96 H96        23.2137    2.5682   -1.6536 H         1 UNK         0.0793 
     97 H97        22.1529    1.1791   -1.4602 H         1 UNK         0.0793 
     98 H98        23.3931    1.5266   -0.2528 H         1 UNK         0.0793 
     99 H99        23.4620   -0.9050   -0.8745 H         1 UNK         0.3024 
    100 H100       24.3763   -2.9754   -0.3757 H         1 UNK         0.1171 
    101 H101       23.7862   -3.9634   -3.2323 H         1 UNK         0.0786 
    102 H102       23.3560   -4.8154   -1.7505 H         1 UNK         0.0786 
    103 H103       22.6056   -3.2734   -2.1243 H         1 UNK         0.0786 
    104 H104       26.0267   -4.4601   -2.3334 H         1 UNK         0.2977 
    105 H105       26.2362    1.1039   -5.4792 H         1 UNK         0.3127 
    106 H106       28.5237    2.4433   -6.5633 H         1 UNK         0.0770 
    107 H107       27.4607    4.4686   -5.6408 H         1 UNK         0.0814 
    108 H108       25.9346    3.6250   -5.4308 H         1 UNK         0.0814 
    109 H109       27.3422    3.1622   -4.4720 H         1 UNK         0.0814 
    110 H110       25.4664    1.6189   -8.0357 H         1 UNK         0.2983 
    111 H111       25.5283    3.6771  -10.0967 H         1 UNK         0.0947 
    112 H112       24.0614    0.9833  -10.0421 H         1 UNK         0.0806 
    113 H113       23.7571    2.3172  -11.1442 H         1 UNK         0.0806 
    114 H114       23.4075    2.5049   -9.4323 H         1 UNK         0.0806 
    115 H115       26.9443    0.4643   -9.6308 H         1 UNK         0.3000 
    116 H116       28.0316    0.3059  -12.3701 H         1 UNK         0.0850 
    117 H117       29.0861   -1.7841  -11.5351 H         1 UNK         0.0810 
    118 H118       27.3585   -1.7976  -11.2209 H         1 UNK         0.0810 
    119 H119       28.4918   -1.4763   -9.9106 H         1 UNK         0.0810 
    120 H120       29.0336    1.0499   -9.0554 H         1 UNK         0.3040 
    121 H121       30.6120    2.2795   -8.1465 H         1 UNK         0.0766 
    122 H122       31.6769    4.1221   -9.3638 H         1 UNK         0.0812 
    123 H123       30.0013    3.9972   -9.8705 H         1 UNK         0.0812 
    124 H124       31.2882    3.3949  -10.9153 H         1 UNK         0.0812 
    125 H125       31.2563   -0.4273   -9.2154 H         1 UNK         0.3205 
    126 H126       34.1604   -0.4464   -9.6025 H         1 UNK         0.0754 
    127 H127       33.8363   -2.9111   -9.6461 H         1 UNK         0.0769 
    128 H128       32.7175   -2.1174  -10.7406 H         1 UNK         0.0769 
    129 H129       32.1497   -2.7240   -9.1860 H         1 UNK         0.0769 
    130 H130       33.9471    1.0112   -7.4584 H         1 UNK         0.2981 
    131 H131       33.6487   -0.4192   -4.9941 H         1 UNK         0.0541 
    132 H132       37.5845   -0.7566   -5.6934 H         1 UNK         0.3459 
    133 H133       36.4567   -0.3571   -6.9671 H         1 UNK         0.3459 
    134 H134       34.7874    2.3937   -5.2772 H         1 UNK         0.0612 
    135 H135       34.0297    1.7023   -3.8674 H         1 UNK         0.0612 
    136 H136       30.2697    2.2378   -4.4288 H         1 UNK         0.0624 
    137 H137       31.5742    2.1373   -3.2678 H         1 UNK         0.0624 
@<TRIPOS>BOND
     1    1    2 1    
     2    1   72 1    
     3    1   73 1    
     4    1   74 1    
     5    2    3 2    
     6    2    4 am   BACKBONE|DICT|INTERRES
     7    4    5 1    
     8    4   75 1    
     9    5    6 1    
    10    5   35 1    
    11    5   76 1    
    12    6    7 1    
    13    6   77 1    
    14    6   78 1    
    15    7    8 1    
    16    8    9 1    
    17    8   79 1    
    18    8   80 1    
    19    9   10 ar   
    20    9   14 ar   
    21   10   11 ar   
    22   10   81 1    
    23   11   12 ar   
    24   11   71 1    
    25   12   13 ar   
    26   12   82 1    
    27   13   14 ar   
    28   13   15 1    
    29   14   83 1    
    30   15   16 1    
    31   15   84 1    
    32   15   85 1    
    33   16   17 1    
    34   17   18 1    
    35   17   86 1    
    36   17   87 1    
    37   18   19 1    
    38   18   37 1    
    39   18   88 1    
    40   19   20 am   BACKBONE|DICT|INTERRES
    41   19   89 1    
    42   20   21 2    
    43   20   22 1    
    44   22   23 1    
    45   22   24 1    
    46   22   90 1    
    47   23   91 1    
    48   23   92 1    
    49   23   93 1    
    50   24   25 am   BACKBONE|DICT|INTERRES
    51   24   94 1    
    52   25   26 2    
    53   25   27 1    
    54   27   28 1    
    55   27   29 1    
    56   27   95 1    
    57   28   96 1    
    58   28   97 1    
    59   28   98 1    
    60   29   30 am   BACKBONE|DICT|INTERRES
    61   29   99 1    
    62   30   31 2    
    63   30   32 1    
    64   32   33 1    
    65   32   34 1    
    66   32  100 1    
    67   33  101 1    
    68   33  102 1    
    69   33  103 1    
    70   34   35 am   BACKBONE|DICT|INTERRES
    71   34  104 1    
    72   35   36 2    
    73   37   38 2    
    74   37   39 am   BACKBONE|DICT|INTERRES
    75   39   40 1    
    76   39  105 1    
    77   40   41 1    
    78   40   42 1    
    79   40  106 1    
    80   41  107 1    
    81   41  108 1    
    82   41  109 1    
    83   42   43 2    
    84   42   44 am   BACKBONE|DICT|INTERRES
    85   44   45 1    
    86   44  110 1    
    87   45   46 1    
    88   45   47 1    
    89   45  111 1    
    90   46  112 1    
    91   46  113 1    
    92   46  114 1    
    93   47   48 2    
    94   47   49 am   BACKBONE|DICT|INTERRES
    95   49   50 1    
    96   49  115 1    
    97   50   51 1    
    98   50   52 1    
    99   50  116 1    
   100   51  117 1    
   101   51  118 1    
   102   51  119 1    
   103   52   53 2    
   104   52   54 am   BACKBONE|DICT|INTERRES
   105   54   55 1    
   106   54  120 1    
   107   55   56 1    
   108   55   57 1    
   109   55  121 1    
   110   56  122 1    
   111   56  123 1    
   112   56  124 1    
   113   57   58 2    
   114   57   59 am   BACKBONE|DICT|INTERRES
   115   59   60 1    
   116   59  125 1    
   117   60   61 1    
   118   60   62 1    
   119   60  126 1    
   120   61  127 1    
   121   61  128 1    
   122   61  129 1    
   123   62   63 2    
   124   62   64 am   BACKBONE|DICT|INTERRES
   125   64   65 1    
   126   64  130 1    
   127   65   66 1    
   128   65   69 1    
   129   65  131 1    
   130   66   67 am   BACKBONE|DICT|INTERRES
   131   66   68 2    
   132   67  132 1    
   133   67  133 1    
   134   69   70 1    
   135   69  134 1    
   136   69  135 1    
   137   70   71 1    
   138   71  136 1    
   139   71  137 1    
@<TRIPOS>SUBSTRUCTURE
     1 UNK         1 GROUP             0       ****    0 ROOT    
