@<TRIPOS>MOLECULE
3R137
137   139    1
SMALL
USER_CHARGES


@<TRIPOS>ATOM
      1 CA         28.4508   -5.4978   -5.8020 C.3       0 UNK        -0.2020 
      2 C          27.3510   -4.9491   -4.9061 C.2       0 UNK         0.4855 
      3 O          26.1800   -4.9768   -5.2846 O.2       0 UNK        -0.5197 
      4 N          27.7268   -4.4518   -3.7218 N.am      1 UNK        -0.4892 
      5 CA         26.8612   -3.9198   -2.6616 C.3       1 UNK         0.0835 
      6 C6         27.6881   -3.5103   -1.4135 C.3       12 UNK        -0.0855 
      7 S7         28.8214   -4.8314   -0.8617 S.3       12 UNK        -0.2931 
      8 C8         30.0968   -3.8868    0.0335 C.3       12 UNK         0.0378 
      9 C9         30.8890   -2.9241   -0.8480 C.ar      12 UNK        -0.0802 
     10 C10        31.6359   -3.3945   -1.9355 C.ar      12 UNK        -0.0944 
     11 C11        32.4322   -2.5215   -2.6873 C.ar      12 UNK        -0.0787 
     12 C12        32.4858   -1.1702   -2.3278 C.ar      12 UNK        -0.0862 
     13 C13        31.7310   -0.6826   -1.2570 C.ar      12 UNK        -0.0733 
     14 C14        30.9282   -1.5629   -0.5266 C.ar      12 UNK        -0.0832 
     15 C15        31.8440    0.7803   -0.8494 C.3       12 UNK         0.0240 
     16 S16        31.2164    1.9146   -2.1265 S.3       12 UNK        -0.2522 
     17 C17        29.4240    1.9466   -1.7845 C.3       12 UNK        -0.0967 
     18 CA         28.6050    1.9743   -3.1007 C.3       5 UNK         0.0660 
     19 N          28.7528    0.7192   -3.8476 N.am      5 UNK        -0.4015 
     20 C          28.5072    0.5296   -5.1500 C.2       4 UNK         0.4946 
     21 O          28.0274    1.3974   -5.8793 O.2       4 UNK        -0.5353 
     22 CA         28.8389   -0.8417   -5.7526 C.3       4 UNK         0.0277 
     23 CB         29.6249   -1.7637   -4.8032 C.3       4 UNK        -0.1981 
     24 N          27.6020   -1.5006   -6.1555 N.am      4 UNK        -0.4209 
     25 C          27.0135   -1.3842   -7.3530 C.2       3 UNK         0.4942 
     26 O          27.4868   -0.7371   -8.2875 O.2       3 UNK        -0.5208 
     27 CA         25.6825   -2.1292   -7.5605 C.3       3 UNK         0.0250 
     28 CB         25.8997   -3.4079   -8.3840 C.3       3 UNK        -0.1990 
     29 N          25.0181   -2.4573   -6.2968 N.am      3 UNK        -0.4232 
     30 C          24.3579   -1.5560   -5.5541 C.2       2 UNK         0.4993 
     31 O          24.1735   -0.3914   -5.9067 O.2       2 UNK        -0.5286 
     32 CA         23.8627   -2.0118   -4.1687 C.3       2 UNK         0.0209 
     33 CB         22.4417   -2.5883   -4.2656 C.3       2 UNK        -0.1931 
     34 N          24.7497   -2.9919   -3.5311 N.am      2 UNK        -0.4546 
     35 C          26.0145   -2.7351   -3.1698 C.2       1 UNK         0.5154 
     36 O          26.5378   -1.6266   -3.2874 O.2       1 UNK        -0.5181 
     37 C          27.1319    2.4090   -2.8972 C.2       5 UNK         0.5014 
     38 O          26.7085    2.6799   -1.7716 O.2       5 UNK        -0.5248 
     39 N          26.3994    2.5189   -4.0078 N.am      6 UNK        -0.4434 
     40 CA         25.1006    3.1613   -4.1550 C.3       6 UNK         0.0363 
     41 CB         23.9577    2.2868   -3.6091 C.3       6 UNK        -0.1936 
     42 C          24.9168    3.5420   -5.6299 C.2       6 UNK         0.5081 
     43 O          24.8083    4.7308   -5.9309 O.2       6 UNK        -0.5248 
     44 N          24.9246    2.5460   -6.5301 N.am      7 UNK        -0.4718 
     45 CA         24.8027    2.7605   -7.9795 C.3       7 UNK         0.0273 
     46 CB         24.3149    1.4700   -8.6523 C.3       7 UNK        -0.1935 
     47 C          26.1018    3.2374   -8.6566 C.2       7 UNK         0.5018 
     48 O          26.0192    3.8888   -9.6986 O.2       7 UNK        -0.5186 
     49 N          27.2616    2.8971   -8.0739 N.am      8 UNK        -0.4240 
     50 CA         28.6237    3.1840   -8.5416 C.3       8 UNK         0.0235 
     51 CB         28.9039    4.7025   -8.5330 C.3       8 UNK        -0.2000 
     52 C          28.9657    2.5071   -9.8839 C.2       8 UNK         0.4941 
     53 O          29.6710    3.1001  -10.7032 O.2       8 UNK        -0.5273 
     54 N          28.4670    1.2801  -10.0870 N.am      9 UNK        -0.4262 
     55 CA         28.7099    0.4730  -11.2832 C.3       9 UNK         0.0264 
     56 CB         27.3964   -0.1973  -11.7232 C.3       9 UNK        -0.1955 
     57 C          29.8023   -0.5775  -11.0339 C.2       9 UNK         0.5031 
     58 O          30.7147   -0.7064  -11.8520 O.2       9 UNK        -0.5390 
     59 N          29.6876   -1.3162   -9.9233 N.am      10 UNK        -0.4204 
     60 CA         30.6140   -2.3781   -9.5283 C.3       10 UNK         0.0237 
     61 CB         29.8500   -3.4219   -8.6977 C.3       10 UNK        -0.1985 
     62 C          31.8033   -1.8275   -8.7262 C.2       10 UNK         0.4970 
     63 O          31.6894   -0.7647   -8.1133 O.2       10 UNK        -0.4914 
     64 N          32.9009   -2.5974   -8.7378 N.am      11 UNK        -0.4285 
     65 CA         34.1640   -2.4212   -7.9918 C.3       11 UNK         0.1007 
     66 C          34.9000   -1.0504   -8.1228 C.2       11 UNK         0.5703 
     67 N          34.5661   -0.2083   -9.0927 N.am      11 UNK        -0.7361 
     68 O          35.8294   -0.7664   -7.3704 O.2       11 UNK        -0.4986 
     69 C69        34.1059   -2.9939   -6.5424 C.3       12 UNK        -0.0947 
     70 S70        33.0885   -2.0467   -5.3663 S.3       12 UNK        -0.2240 
     71 C71        33.2680   -3.0490   -3.8526 C.3       12 UNK         0.0194 
     72 H72        29.4430   -5.3253   -5.3853 H         1 UNK         0.0906 
     73 H73        28.3206   -6.5712   -5.9364 H         1 UNK         0.0906 
     74 H74        28.4110   -5.0277   -6.7821 H         1 UNK         0.0906 
     75 H75        28.7040   -4.4850   -3.4675 H         1 UNK         0.3140 
     76 H76        26.1834   -4.7228   -2.3644 H         1 UNK         0.1085 
     77 H77        27.0260   -3.2547   -0.5841 H         1 UNK         0.0836 
     78 H78        28.2755   -2.6140   -1.6196 H         1 UNK         0.0836 
     79 H79        30.7935   -4.5916    0.4892 H         1 UNK         0.0731 
     80 H80        29.6198   -3.3570    0.8596 H         1 UNK         0.0731 
     81 H81        31.6110   -4.4476   -2.1805 H         1 UNK         0.1312 
     82 H82        33.1185   -0.4919   -2.8841 H         1 UNK         0.1406 
     83 H83        30.3641   -1.1942    0.3196 H         1 UNK         0.1631 
     84 H84        32.8956    1.0098   -0.6721 H         1 UNK         0.0717 
     85 H85        31.3306    0.9724    0.0941 H         1 UNK         0.0717 
     86 H86        29.1350    1.0927   -1.1691 H         1 UNK         0.0934 
     87 H87        29.2329    2.8375   -1.1829 H         1 UNK         0.0934 
     88 H88        29.0378    2.7610   -3.7233 H         1 UNK         0.0739 
     89 H89        29.1024   -0.0636   -3.3160 H         1 UNK         0.3093 
     90 H90        29.4618   -0.6570   -6.6296 H         1 UNK         0.0818 
     91 H91        30.5302   -1.2678   -4.4572 H         1 UNK         0.0819 
     92 H92        29.0554   -2.0446   -3.9197 H         1 UNK         0.0819 
     93 H93        29.9355   -2.6786   -5.3068 H         1 UNK         0.0819 
     94 H94        27.0877   -1.9551   -5.4132 H         1 UNK         0.3041 
     95 H95        25.0223   -1.4818   -8.1379 H         1 UNK         0.0784 
     96 H96        26.3619   -3.1784   -9.3452 H         1 UNK         0.0793 
     97 H97        26.5479   -4.1174   -7.8725 H         1 UNK         0.0793 
     98 H98        24.9545   -3.9094   -8.5917 H         1 UNK         0.0793 
     99 H99        25.1676   -3.3928   -5.9273 H         1 UNK         0.3024 
    100 H100       23.8318   -1.1265   -3.5296 H         1 UNK         0.1171 
    101 H101       22.0444   -2.8330   -3.2803 H         1 UNK         0.0786 
    102 H102       21.7593   -1.8672   -4.7183 H         1 UNK         0.0786 
    103 H103       22.4124   -3.4924   -4.8752 H         1 UNK         0.0786 
    104 H104       24.4053   -3.9393   -3.4597 H         1 UNK         0.2977 
    105 H105       26.8588    2.2397   -4.8752 H         1 UNK         0.3127 
    106 H106       25.1169    4.0910   -3.5820 H         1 UNK         0.0770 
    107 H107       23.9622    1.2922   -4.0471 H         1 UNK         0.0814 
    108 H108       22.9865    2.7358   -3.8202 H         1 UNK         0.0814 
    109 H109       24.0325    2.1703   -2.5281 H         1 UNK         0.0814 
    110 H110       24.9525    1.5827   -6.2102 H         1 UNK         0.2983 
    111 H111       24.0458    3.5301   -8.1478 H         1 UNK         0.0947 
    112 H112       24.0899    1.6411   -9.7059 H         1 UNK         0.0806 
    113 H113       23.4087    1.0869   -8.1828 H         1 UNK         0.0806 
    114 H114       25.0769    0.6945   -8.6084 H         1 UNK         0.0806 
    115 H115       27.2326    2.3217   -7.2344 H         1 UNK         0.3000 
    116 H116       29.2934    2.7303   -7.8097 H         1 UNK         0.0850 
    117 H117       29.9560    4.9069   -8.7352 H         1 UNK         0.0810 
    118 H118       28.6701    5.1425   -7.5637 H         1 UNK         0.0810 
    119 H119       28.3205    5.2270   -9.2902 H         1 UNK         0.0810 
    120 H120       27.9456    0.8291   -9.3397 H         1 UNK         0.3040 
    121 H121       29.0437    1.1107  -12.1046 H         1 UNK         0.0766 
    122 H122       26.6345    0.5467  -11.9566 H         1 UNK         0.0812 
    123 H123       26.9926   -0.8557  -10.9533 H         1 UNK         0.0812 
    124 H124       27.5479   -0.7989  -12.6203 H         1 UNK         0.0812 
    125 H125       28.9239   -1.1105   -9.2809 H         1 UNK         0.3205 
    126 H126       30.9940   -2.8672  -10.4281 H         1 UNK         0.0754 
    127 H127       28.9864   -3.8076   -9.2397 H         1 UNK         0.0769 
    128 H128       29.4977   -3.0037   -7.7558 H         1 UNK         0.0769 
    129 H129       30.4861   -4.2739   -8.4544 H         1 UNK         0.0769 
    130 H130       32.8723   -3.4329   -9.3038 H         1 UNK         0.2981 
    131 H131       34.8441   -3.0886   -8.5221 H         1 UNK         0.0541 
    132 H132       35.0600    0.6655   -9.1795 H         1 UNK         0.3459 
    133 H133       33.7926   -0.4169   -9.7032 H         1 UNK         0.3459 
    134 H134       33.7215   -4.0144   -6.5721 H         1 UNK         0.0612 
    135 H135       35.1136   -3.0727   -6.1307 H         1 UNK         0.0612 
    136 H136       34.3176   -3.0642   -3.5568 H         1 UNK         0.0624 
    137 H137       32.9906   -4.0785   -4.0840 H         1 UNK         0.0624 
@<TRIPOS>BOND
     1    1    2 1    
     2    1   72 1    
     3    1   73 1    
     4    1   74 1    
     5    2    3 2    
     6    2    4 am   BACKBONE|DICT|INTERRES
     7    4    5 1    
     8    4   75 1    
     9    5    6 1    
    10    5   35 1    
    11    5   76 1    
    12    6    7 1    
    13    6   77 1    
    14    6   78 1    
    15    7    8 1    
    16    8    9 1    
    17    8   79 1    
    18    8   80 1    
    19    9   10 ar   
    20    9   14 ar   
    21   10   11 ar   
    22   10   81 1    
    23   11   12 ar   
    24   11   71 1    
    25   12   13 ar   
    26   12   82 1    
    27   13   14 ar   
    28   13   15 1    
    29   14   83 1    
    30   15   16 1    
    31   15   84 1    
    32   15   85 1    
    33   16   17 1    
    34   17   18 1    
    35   17   86 1    
    36   17   87 1    
    37   18   19 1    
    38   18   37 1    
    39   18   88 1    
    40   19   20 am   BACKBONE|DICT|INTERRES
    41   19   89 1    
    42   20   21 2    
    43   20   22 1    
    44   22   23 1    
    45   22   24 1    
    46   22   90 1    
    47   23   91 1    
    48   23   92 1    
    49   23   93 1    
    50   24   25 am   BACKBONE|DICT|INTERRES
    51   24   94 1    
    52   25   26 2    
    53   25   27 1    
    54   27   28 1    
    55   27   29 1    
    56   27   95 1    
    57   28   96 1    
    58   28   97 1    
    59   28   98 1    
    60   29   30 am   BACKBONE|DICT|INTERRES
    61   29   99 1    
    62   30   31 2    
    63   30   32 1    
    64   32   33 1    
    65   32   34 1    
    66   32  100 1    
    67   33  101 1    
    68   33  102 1    
    69   33  103 1    
    70   34   35 am   BACKBONE|DICT|INTERRES
    71   34  104 1    
    72   35   36 2    
    73   37   38 2    
    74   37   39 am   BACKBONE|DICT|INTERRES
    75   39   40 1    
    76   39  105 1    
    77   40   41 1    
    78   40   42 1    
    79   40  106 1    
    80   41  107 1    
    81   41  108 1    
    82   41  109 1    
    83   42   43 2    
    84   42   44 am   BACKBONE|DICT|INTERRES
    85   44   45 1    
    86   44  110 1    
    87   45   46 1    
    88   45   47 1    
    89   45  111 1    
    90   46  112 1    
    91   46  113 1    
    92   46  114 1    
    93   47   48 2    
    94   47   49 am   BACKBONE|DICT|INTERRES
    95   49   50 1    
    96   49  115 1    
    97   50   51 1    
    98   50   52 1    
    99   50  116 1    
   100   51  117 1    
   101   51  118 1    
   102   51  119 1    
   103   52   53 2    
   104   52   54 am   BACKBONE|DICT|INTERRES
   105   54   55 1    
   106   54  120 1    
   107   55   56 1    
   108   55   57 1    
   109   55  121 1    
   110   56  122 1    
   111   56  123 1    
   112   56  124 1    
   113   57   58 2    
   114   57   59 am   BACKBONE|DICT|INTERRES
   115   59   60 1    
   116   59  125 1    
   117   60   61 1    
   118   60   62 1    
   119   60  126 1    
   120   61  127 1    
   121   61  128 1    
   122   61  129 1    
   123   62   63 2    
   124   62   64 am   BACKBONE|DICT|INTERRES
   125   64   65 1    
   126   64  130 1    
   127   65   66 1    
   128   65   69 1    
   129   65  131 1    
   130   66   67 am   BACKBONE|DICT|INTERRES
   131   66   68 2    
   132   67  132 1    
   133   67  133 1    
   134   69   70 1    
   135   69  134 1    
   136   69  135 1    
   137   70   71 1    
   138   71  136 1    
   139   71  137 1    
@<TRIPOS>SUBSTRUCTURE
     1 UNK         1 GROUP             0       ****    0 ROOT    
