@<TRIPOS>MOLECULE
3R137
137   139    1
SMALL
USER_CHARGES


@<TRIPOS>ATOM
      1 CA         25.9465   -3.7538    2.1435 C.3       0 UNK        -0.2020 
      2 C          26.2193   -4.9992    1.3021 C.2       0 UNK         0.4855 
      3 O          25.8755   -6.0994    1.7306 O.2       0 UNK        -0.5197 
      4 N          26.8416   -4.8943    0.1192 N.am      1 UNK        -0.4892 
      5 CA         27.2582   -3.6670   -0.5727 C.3       1 UNK         0.0835 
      6 C6         28.1468   -3.9789   -1.8021 C.3       12 UNK        -0.0855 
      7 S7         29.6322   -4.9695   -1.4054 S.3       12 UNK        -0.2931 
      8 C8         30.8850   -3.7076   -0.9903 C.3       12 UNK         0.0378 
      9 C9         31.0758   -2.6836   -2.1005 C.ar      12 UNK        -0.0802 
     10 C10        31.5927   -3.0676   -3.3403 C.ar      12 UNK        -0.0944 
     11 C11        31.7057   -2.1391   -4.3796 C.ar      12 UNK        -0.0787 
     12 C12        31.3057   -0.8148   -4.1721 C.ar      12 UNK        -0.0862 
     13 C13        30.8088   -0.4159   -2.9275 C.ar      12 UNK        -0.0733 
     14 C14        30.7081   -1.3522   -1.8941 C.ar      12 UNK        -0.0832 
     15 C15        30.3631    1.0180   -2.6875 C.3       12 UNK         0.0240 
     16 S16        28.5843    1.0747   -2.3085 S.3       12 UNK        -0.2522 
     17 C17        27.9247    2.1472   -3.6247 C.3       12 UNK        -0.0967 
     18 CA         28.0088    1.5684   -5.0650 C.3       5 UNK         0.0660 
     19 N          27.7054    0.1391   -5.1621 N.am      5 UNK        -0.4015 
     20 C          28.0042   -0.6358   -6.2161 C.2       4 UNK         0.4946 
     21 O          28.6620   -0.2537   -7.1849 O.2       4 UNK        -0.5353 
     22 CA         27.4618   -2.0764   -6.2066 C.3       4 UNK         0.0277 
     23 CB         28.5175   -3.0518   -5.6678 C.3       4 UNK        -0.1981 
     24 N          26.2266   -2.2193   -5.4324 N.am      4 UNK        -0.4209 
     25 C          25.0454   -1.6996   -5.7951 C.2       3 UNK         0.4942 
     26 O          24.8619   -1.0802   -6.8420 O.2       3 UNK        -0.5208 
     27 CA         23.8938   -1.8462   -4.7879 C.3       3 UNK         0.0250 
     28 CB         23.2308   -3.2266   -4.9143 C.3       3 UNK        -0.1990 
     29 N          24.3177   -1.6282   -3.4011 N.am      3 UNK        -0.4232 
     30 C          24.8259   -0.4870   -2.9198 C.2       2 UNK         0.4993 
     31 O          25.0121    0.5149   -3.6105 O.2       2 UNK        -0.5286 
     32 CA         25.2325   -0.4633   -1.4363 C.3       2 UNK         0.0209 
     33 CB         23.9981   -0.4720   -0.5123 C.3       2 UNK        -0.1931 
     34 N          26.2084   -1.4997   -1.0580 N.am      2 UNK        -0.4546 
     35 C          26.0393   -2.8297   -1.0167 C.2       1 UNK         0.5154 
     36 O          24.9932   -3.3994   -1.3385 O.2       1 UNK        -0.5181 
     37 C          27.0823    2.3578   -6.0053 C.2       5 UNK         0.5014 
     38 O          27.5673    3.1461   -6.8184 O.2       5 UNK        -0.5248 
     39 N          25.7692    2.0981   -5.8845 N.am      6 UNK        -0.4434 
     40 CA         24.6938    2.6962   -6.6807 C.3       6 UNK         0.0363 
     41 CB         23.3361    2.1801   -6.1798 C.3       6 UNK        -0.1936 
     42 C          24.8433    2.4530   -8.1907 C.2       6 UNK         0.5081 
     43 O          24.5518    3.3529   -8.9782 O.2       6 UNK        -0.5248 
     44 N          25.3709    1.2820   -8.5711 N.am      7 UNK        -0.4718 
     45 CA         25.7807    0.9157   -9.9318 C.3       7 UNK         0.0273 
     46 CB         25.8806   -0.6187  -10.0119 C.3       7 UNK        -0.1935 
     47 C          27.0799    1.6177  -10.3986 C.2       7 UNK         0.5018 
     48 O          27.9113    0.9888  -11.0548 O.2       7 UNK        -0.5186 
     49 N          27.2226    2.9080  -10.0597 N.am      8 UNK        -0.4240 
     50 CA         28.3210    3.8264  -10.3798 C.3       8 UNK         0.0235 
     51 CB         28.2827    4.1939  -11.8788 C.3       8 UNK        -0.2000 
     52 C          29.7052    3.3257   -9.9196 C.2       8 UNK         0.4941 
     53 O          30.6773    3.4782  -10.6618 O.2       8 UNK        -0.5273 
     54 N          29.7627    2.7460   -8.7080 N.am      9 UNK        -0.4262 
     55 CA         30.9264    2.0959   -8.0866 C.3       9 UNK         0.0264 
     56 CB         31.9895    3.1398   -7.6869 C.3       9 UNK        -0.1955 
     57 C          31.4895    0.9774   -8.9834 C.2       9 UNK         0.5031 
     58 O          32.5809    1.1168   -9.5395 O.2       9 UNK        -0.5390 
     59 N          30.7039   -0.0979   -9.1303 N.am      10 UNK        -0.4204 
     60 CA         30.8769   -1.1781  -10.1116 C.3       10 UNK         0.0237 
     61 CB         29.7585   -2.2135   -9.9105 C.3       10 UNK        -0.1985 
     62 C          32.2509   -1.8748  -10.1212 C.2       10 UNK         0.4970 
     63 O          32.6703   -2.3588  -11.1733 O.2       10 UNK        -0.4914 
     64 N          32.9164   -1.9149   -8.9631 N.am      11 UNK        -0.4285 
     65 CA         34.2688   -2.4558   -8.7736 C.3       11 UNK         0.1007 
     66 C          35.4160   -1.4343   -9.0307 C.2       11 UNK         0.5703 
     67 N          35.1409   -0.1741   -9.3468 N.am      11 UNK        -0.7361 
     68 O          36.5874   -1.8002   -8.9645 O.2       11 UNK        -0.4986 
     69 C69        34.3973   -3.1805   -7.4070 C.3       12 UNK        -0.0947 
     70 S70        33.9748   -2.1506   -5.9576 S.3       12 UNK        -0.2240 
     71 C71        32.2225   -2.5829   -5.7362 C.3       12 UNK         0.0194 
     72 H72        26.8100   -3.0914    2.1810 H         1 UNK         0.0906 
     73 H73        25.0933   -3.2028    1.7490 H         1 UNK         0.0906 
     74 H74        25.7114   -4.0358    3.1697 H         1 UNK         0.0906 
     75 H75        27.0122   -5.7424   -0.4019 H         1 UNK         0.3140 
     76 H76        27.8503   -3.0717    0.1246 H         1 UNK         0.1085 
     77 H77        28.4477   -3.0579   -2.3018 H         1 UNK         0.0836 
     78 H78        27.5769   -4.5402   -2.5457 H         1 UNK         0.0836 
     79 H79        31.8363   -4.2050   -0.7964 H         1 UNK         0.0731 
     80 H80        30.5993   -3.2217   -0.0561 H         1 UNK         0.0731 
     81 H81        31.8805   -4.0977   -3.5018 H         1 UNK         0.1312 
     82 H82        31.3801   -0.0998   -4.9800 H         1 UNK         0.1406 
     83 H83        30.3137   -1.0435   -0.9354 H         1 UNK         0.1631 
     84 H84        30.5943    1.6500   -3.5457 H         1 UNK         0.0717 
     85 H85        30.9185    1.4309   -1.8444 H         1 UNK         0.0717 
     86 H86        26.8916    2.3622   -3.3448 H         1 UNK         0.0934 
     87 H87        28.4409    3.1081   -3.5797 H         1 UNK         0.0934 
     88 H88        29.0325    1.7076   -5.4147 H         1 UNK         0.0739 
     89 H89        27.1467   -0.2432   -4.4143 H         1 UNK         0.3093 
     90 H90        27.2429   -2.3504   -7.2409 H         1 UNK         0.0818 
     91 H91        29.4037   -3.0451   -6.3015 H         1 UNK         0.0819 
     92 H92        28.8349   -2.7894   -4.6586 H         1 UNK         0.0819 
     93 H93        28.1460   -4.0764   -5.6500 H         1 UNK         0.0819 
     94 H94        26.2814   -2.7252   -4.5613 H         1 UNK         0.3041 
     95 H95        23.1482   -1.0856   -5.0283 H         1 UNK         0.0784 
     96 H96        22.8988   -3.4081   -5.9376 H         1 UNK         0.0793 
     97 H97        23.9149   -4.0321   -4.6441 H         1 UNK         0.0793 
     98 H98        22.3533   -3.3039   -4.2719 H         1 UNK         0.0793 
     99 H99        24.2547   -2.4143   -2.7579 H         1 UNK         0.3024 
    100 H100       25.7384    0.4910   -1.2778 H         1 UNK         0.1171 
    101 H101       24.2871   -0.3643    0.5332 H         1 UNK         0.0786 
    102 H102       23.3308    0.3577   -0.7498 H         1 UNK         0.0786 
    103 H103       23.4160   -1.3892   -0.6047 H         1 UNK         0.0786 
    104 H104       27.1199   -1.1342   -0.8157 H         1 UNK         0.2977 
    105 H105       25.4757    1.4503   -5.1550 H         1 UNK         0.3127 
    106 H106       24.7322    3.7750   -6.5170 H         1 UNK         0.0770 
    107 H107       23.2414    1.1021   -6.3128 H         1 UNK         0.0814 
    108 H108       22.5154    2.6494   -6.7238 H         1 UNK         0.0814 
    109 H109       23.1927    2.4001   -5.1216 H         1 UNK         0.0814 
    110 H110       25.5188    0.5771   -7.8556 H         1 UNK         0.2983 
    111 H111       24.9946    1.2335  -10.6199 H         1 UNK         0.0947 
    112 H112       26.1377   -0.9506  -11.0187 H         1 UNK         0.0806 
    113 H113       24.9337   -1.0910   -9.7495 H         1 UNK         0.0806 
    114 H114       26.6418   -1.0016   -9.3320 H         1 UNK         0.0806 
    115 H115       26.4575    3.3133   -9.5297 H         1 UNK         0.3000 
    116 H116       28.1290    4.7376   -9.8113 H         1 UNK         0.0850 
    117 H117       29.0146    4.9681  -12.1127 H         1 UNK         0.0810 
    118 H118       27.3046    4.5778  -12.1688 H         1 UNK         0.0810 
    119 H119       28.5058    3.3326  -12.5095 H         1 UNK         0.0810 
    120 H120       28.9025    2.7145   -8.1657 H         1 UNK         0.3040 
    121 H121       30.5763    1.6216   -7.1703 H         1 UNK         0.0766 
    122 H122       31.5761    3.8850   -7.0075 H         1 UNK         0.0812 
    123 H123       32.3931    3.6638   -8.5538 H         1 UNK         0.0812 
    124 H124       32.8281    2.6637   -7.1773 H         1 UNK         0.0812 
    125 H125       29.8465   -0.1272   -8.5776 H         1 UNK         0.3205 
    126 H126       30.7459   -0.7258  -11.0966 H         1 UNK         0.0754 
    127 H127       29.7811   -2.6425   -8.9080 H         1 UNK         0.0769 
    128 H128       29.8478   -3.0351  -10.6227 H         1 UNK         0.0769 
    129 H129       28.7777   -1.7637  -10.0615 H         1 UNK         0.0769 
    130 H130       32.5176   -1.4481   -8.1640 H         1 UNK         0.2981 
    131 H131       34.4232   -3.2255   -9.5320 H         1 UNK         0.0541 
    132 H132       34.1830    0.1606   -9.4222 H         1 UNK         0.3459 
    133 H133       35.9022    0.4628   -9.5168 H         1 UNK         0.3459 
    134 H134       33.7634   -4.0681   -7.4092 H         1 UNK         0.0612 
    135 H135       35.4111   -3.5599   -7.2681 H         1 UNK         0.0612 
    136 H136       32.0907   -3.6601   -5.8481 H         1 UNK         0.0624 
    137 H137       31.6285   -2.1158   -6.5219 H         1 UNK         0.0624 
@<TRIPOS>BOND
     1    1    2 1    
     2    1   72 1    
     3    1   73 1    
     4    1   74 1    
     5    2    3 2    
     6    2    4 am   BACKBONE|DICT|INTERRES
     7    4    5 1    
     8    4   75 1    
     9    5    6 1    
    10    5   35 1    
    11    5   76 1    
    12    6    7 1    
    13    6   77 1    
    14    6   78 1    
    15    7    8 1    
    16    8    9 1    
    17    8   79 1    
    18    8   80 1    
    19    9   10 ar   
    20    9   14 ar   
    21   10   11 ar   
    22   10   81 1    
    23   11   12 ar   
    24   11   71 1    
    25   12   13 ar   
    26   12   82 1    
    27   13   14 ar   
    28   13   15 1    
    29   14   83 1    
    30   15   16 1    
    31   15   84 1    
    32   15   85 1    
    33   16   17 1    
    34   17   18 1    
    35   17   86 1    
    36   17   87 1    
    37   18   19 1    
    38   18   37 1    
    39   18   88 1    
    40   19   20 am   BACKBONE|DICT|INTERRES
    41   19   89 1    
    42   20   21 2    
    43   20   22 1    
    44   22   23 1    
    45   22   24 1    
    46   22   90 1    
    47   23   91 1    
    48   23   92 1    
    49   23   93 1    
    50   24   25 am   BACKBONE|DICT|INTERRES
    51   24   94 1    
    52   25   26 2    
    53   25   27 1    
    54   27   28 1    
    55   27   29 1    
    56   27   95 1    
    57   28   96 1    
    58   28   97 1    
    59   28   98 1    
    60   29   30 am   BACKBONE|DICT|INTERRES
    61   29   99 1    
    62   30   31 2    
    63   30   32 1    
    64   32   33 1    
    65   32   34 1    
    66   32  100 1    
    67   33  101 1    
    68   33  102 1    
    69   33  103 1    
    70   34   35 am   BACKBONE|DICT|INTERRES
    71   34  104 1    
    72   35   36 2    
    73   37   38 2    
    74   37   39 am   BACKBONE|DICT|INTERRES
    75   39   40 1    
    76   39  105 1    
    77   40   41 1    
    78   40   42 1    
    79   40  106 1    
    80   41  107 1    
    81   41  108 1    
    82   41  109 1    
    83   42   43 2    
    84   42   44 am   BACKBONE|DICT|INTERRES
    85   44   45 1    
    86   44  110 1    
    87   45   46 1    
    88   45   47 1    
    89   45  111 1    
    90   46  112 1    
    91   46  113 1    
    92   46  114 1    
    93   47   48 2    
    94   47   49 am   BACKBONE|DICT|INTERRES
    95   49   50 1    
    96   49  115 1    
    97   50   51 1    
    98   50   52 1    
    99   50  116 1    
   100   51  117 1    
   101   51  118 1    
   102   51  119 1    
   103   52   53 2    
   104   52   54 am   BACKBONE|DICT|INTERRES
   105   54   55 1    
   106   54  120 1    
   107   55   56 1    
   108   55   57 1    
   109   55  121 1    
   110   56  122 1    
   111   56  123 1    
   112   56  124 1    
   113   57   58 2    
   114   57   59 am   BACKBONE|DICT|INTERRES
   115   59   60 1    
   116   59  125 1    
   117   60   61 1    
   118   60   62 1    
   119   60  126 1    
   120   61  127 1    
   121   61  128 1    
   122   61  129 1    
   123   62   63 2    
   124   62   64 am   BACKBONE|DICT|INTERRES
   125   64   65 1    
   126   64  130 1    
   127   65   66 1    
   128   65   69 1    
   129   65  131 1    
   130   66   67 am   BACKBONE|DICT|INTERRES
   131   66   68 2    
   132   67  132 1    
   133   67  133 1    
   134   69   70 1    
   135   69  134 1    
   136   69  135 1    
   137   70   71 1    
   138   71  136 1    
   139   71  137 1    
@<TRIPOS>SUBSTRUCTURE
     1 UNK         1 GROUP             0       ****    0 ROOT    
