@<TRIPOS>MOLECULE
3R137
137   139    1
SMALL
USER_CHARGES


@<TRIPOS>ATOM
      1 CA         28.4792    1.3622    2.6141 C.3       0 UNK        -0.2020 
      2 C          27.9887    0.7155    1.3272 C.2       0 UNK         0.4855 
      3 O          26.9847    1.1546    0.7653 O.2       0 UNK        -0.5197 
      4 N          28.6939   -0.3176    0.8509 N.am      1 UNK        -0.4892 
      5 CA         28.3417   -1.0890   -0.3451 C.3       1 UNK         0.0835 
      6 C6         29.5183   -1.9785   -0.8200 C.3       12 UNK        -0.0855 
      7 S7         30.9345   -1.0058   -1.4316 S.3       12 UNK        -0.2931 
      8 C8         30.4281   -0.6575   -3.1470 C.3       12 UNK         0.0378 
      9 C9         30.4748   -1.8926   -4.0368 C.ar      12 UNK        -0.0802 
     10 C10        31.6903   -2.3017   -4.5907 C.ar      12 UNK        -0.0944 
     11 C11        31.7569   -3.4325   -5.4095 C.ar      12 UNK        -0.0787 
     12 C12        30.5898   -4.1586   -5.6691 C.ar      12 UNK        -0.0862 
     13 C13        29.3676   -3.7727   -5.1085 C.ar      12 UNK        -0.0733 
     14 C14        29.3148   -2.6279   -4.3056 C.ar      12 UNK        -0.0832 
     15 C15        28.1326   -4.6470   -5.3079 C.3       12 UNK         0.0240 
     16 S16        26.6602   -3.7348   -5.8700 S.3       12 UNK        -0.2522 
     17 C17        27.1295   -3.2825   -7.5794 C.3       12 UNK        -0.0967 
     18 CA         26.7299   -1.8372   -7.9669 C.3       5 UNK         0.0660 
     19 N          25.2957   -1.5980   -7.7743 N.am      5 UNK        -0.4015 
     20 C          24.6417   -0.4482   -7.9922 C.2       4 UNK         0.4946 
     21 O          25.1479    0.5253   -8.5512 O.2       4 UNK        -0.5353 
     22 CA         23.2128   -0.3242   -7.4293 C.3       4 UNK         0.0277 
     23 CB         22.1862   -0.4045   -8.5701 C.3       4 UNK        -0.1981 
     24 N          22.8565   -1.2990   -6.3864 N.am      4 UNK        -0.4209 
     25 C          23.5117   -1.5198   -5.2351 C.2       3 UNK         0.4942 
     26 O          24.5428   -0.9212   -4.9154 O.2       3 UNK        -0.5208 
     27 CA         22.9332   -2.6275   -4.3309 C.3       3 UNK         0.0250 
     28 CB         22.5469   -3.8878   -5.1322 C.3       3 UNK        -0.1990 
     29 N          23.8727   -3.0304   -3.2839 N.am      3 UNK        -0.4232 
     30 C          24.0630   -2.4018   -2.1179 C.2       2 UNK         0.4993 
     31 O          23.4482   -1.3926   -1.7697 O.2       2 UNK        -0.5286 
     32 CA         25.1105   -3.0017   -1.1694 C.3       2 UNK         0.0209 
     33 CB         25.5452   -4.4435   -1.5205 C.3       2 UNK        -0.1931 
     34 N          26.2779   -2.1265   -1.1515 N.am      2 UNK        -0.4546 
     35 C          27.0937   -1.9617   -0.1043 C.2       1 UNK         0.5154 
     36 O          26.9280   -2.5086    0.9899 O.2       1 UNK        -0.5181 
     37 C          27.6245   -0.7946   -7.2611 C.2       5 UNK         0.5014 
     38 O          28.6841   -0.4664   -7.7934 O.2       5 UNK        -0.5248 
     39 N          27.1625   -0.2358   -6.1314 N.am      6 UNK        -0.4434 
     40 CA         27.8160    0.8622   -5.4163 C.3       6 UNK         0.0363 
     41 CB         27.0815    1.1017   -4.0874 C.3       6 UNK        -0.1936 
     42 C          27.9182    2.1740   -6.2183 C.2       6 UNK         0.5081 
     43 O          28.7854    2.9897   -5.9069 O.2       6 UNK        -0.5248 
     44 N          27.0547    2.3543   -7.2261 N.am      7 UNK        -0.4718 
     45 CA         27.1002    3.4709   -8.1687 C.3       7 UNK         0.0273 
     46 CB         25.6951    4.0823   -8.3000 C.3       7 UNK        -0.1935 
     47 C          27.6179    3.0114   -9.5394 C.2       7 UNK         0.5018 
     48 O          28.4387    3.7089  -10.1356 O.2       7 UNK        -0.5186 
     49 N          27.1191    1.8644  -10.0243 N.am      8 UNK        -0.4240 
     50 CA         27.3966    1.3375  -11.3625 C.3       8 UNK         0.0235 
     51 CB         26.3671    0.2494  -11.7087 C.3       8 UNK        -0.2000 
     52 C          28.8284    0.8090  -11.5471 C.2       8 UNK         0.4941 
     53 O          29.3864    0.9813  -12.6319 O.2       8 UNK        -0.5273 
     54 N          29.3907    0.1767  -10.5088 N.am      9 UNK        -0.4262 
     55 CA         30.7596   -0.3433  -10.4969 C.3       9 UNK         0.0264 
     56 CB         30.7575   -1.8324  -10.1052 C.3       9 UNK        -0.1955 
     57 C          31.6321    0.4728   -9.5375 C.2       9 UNK         0.5031 
     58 O          32.7284    0.8804   -9.9246 O.2       9 UNK        -0.5390 
     59 N          31.1390    0.6885   -8.3080 N.am      10 UNK        -0.4204 
     60 CA         31.7320    1.4198   -7.1771 C.3       10 UNK         0.0237 
     61 CB         31.9433    2.9064   -7.5212 C.3       10 UNK        -0.1985 
     62 C          33.0126    0.7942   -6.5922 C.2       10 UNK         0.4970 
     63 O          33.1591    0.7702   -5.3703 O.2       10 UNK        -0.4914 
     64 N          33.8995    0.2983   -7.4617 N.am      11 UNK        -0.4285 
     65 CA         35.1411   -0.4308   -7.1573 C.3       11 UNK         0.1007 
     66 C          36.2513    0.4208   -6.4687 C.2       11 UNK         0.5703 
     67 N          36.1744    1.7464   -6.4862 N.am      11 UNK        -0.7361 
     68 O          37.2188   -0.1225   -5.9398 O.2       11 UNK        -0.4986 
     69 C69        34.8867   -1.7863   -6.4371 C.3       12 UNK        -0.0947 
     70 S70        33.7029   -2.8619   -7.3221 S.3       12 UNK        -0.2240 
     71 C71        33.0931   -3.9102   -5.9649 C.3       12 UNK         0.0194 
     72 H72        27.7112    1.2941    3.3842 H         1 UNK         0.0906 
     73 H73        29.3824    0.8841    2.9929 H         1 UNK         0.0906 
     74 H74        28.6994    2.4159    2.4444 H         1 UNK         0.0906 
     75 H75        29.5050   -0.6443    1.3563 H         1 UNK         0.3140 
     76 H76        28.0994   -0.3747   -1.1346 H         1 UNK         0.1085 
     77 H77        29.8694   -2.6088   -0.0005 H         1 UNK         0.0836 
     78 H78        29.2049   -2.6734   -1.5992 H         1 UNK         0.0836 
     79 H79        31.0839    0.1113   -3.5587 H         1 UNK         0.0731 
     80 H80        29.4287   -0.2275   -3.1357 H         1 UNK         0.0731 
     81 H81        32.5860   -1.7399   -4.3695 H         1 UNK         0.1312 
     82 H82        30.6410   -5.0485   -6.2816 H         1 UNK         0.1406 
     83 H83        28.3712   -2.3256   -3.8738 H         1 UNK         0.1631 
     84 H84        27.8973   -5.1287   -4.3581 H         1 UNK         0.0717 
     85 H85        28.3336   -5.4528   -6.0156 H         1 UNK         0.0717 
     86 H86        28.2014   -3.4320   -7.7262 H         1 UNK         0.0934 
     87 H87        26.6444   -3.9887   -8.2550 H         1 UNK         0.0934 
     88 H88        26.9192   -1.7248   -9.0352 H         1 UNK         0.0739 
     89 H89        24.8012   -2.3302   -7.2871 H         1 UNK         0.3093 
     90 H90        23.1432    0.6668   -6.9763 H         1 UNK         0.0818 
     91 H91        22.4079    0.3278   -9.3482 H         1 UNK         0.0819 
     92 H92        21.1772   -0.1964   -8.2136 H         1 UNK         0.0819 
     93 H93        22.1818   -1.3882   -9.0413 H         1 UNK         0.0819 
     94 H94        22.0249   -1.8442   -6.5631 H         1 UNK         0.3041 
     95 H95        22.0328   -2.2276   -3.8598 H         1 UNK         0.0784 
     96 H96        21.7332   -3.6921   -5.8310 H         1 UNK         0.0793 
     97 H97        23.3897   -4.2770   -5.7056 H         1 UNK         0.0793 
     98 H98        22.2019   -4.6836   -4.4714 H         1 UNK         0.0793 
     99 H99        24.4636   -3.8203   -3.4980 H         1 UNK         0.3024 
    100 H100       24.6499   -3.0143   -0.1785 H         1 UNK         0.1171 
    101 H101       26.1977   -4.8518   -0.7484 H         1 UNK         0.0786 
    102 H102       24.6852   -5.1112   -1.5908 H         1 UNK         0.0786 
    103 H103       26.0894   -4.4918   -2.4645 H         1 UNK         0.0786 
    104 H104       26.4341   -1.5982   -1.9984 H         1 UNK         0.2977 
    105 H105       26.2698   -0.5519   -5.7580 H         1 UNK         0.3127 
    106 H106       28.8378    0.5457   -5.2062 H         1 UNK         0.0770 
    107 H107       27.0253    0.1917   -3.4915 H         1 UNK         0.0814 
    108 H108       26.0612    1.4508   -4.2524 H         1 UNK         0.0814 
    109 H109       27.5924    1.8559   -3.4873 H         1 UNK         0.0814 
    110 H110       26.3796    1.6244   -7.4277 H         1 UNK         0.2983 
    111 H111       27.7738    4.2513   -7.8072 H         1 UNK         0.0947 
    112 H112       25.6962    4.9148   -9.0049 H         1 UNK         0.0806 
    113 H113       25.3430    4.4686   -7.3434 H         1 UNK         0.0806 
    114 H114       24.9646    3.3540   -8.6548 H         1 UNK         0.0806 
    115 H115       26.4137    1.3699   -9.4797 H         1 UNK         0.3000 
    116 H116       27.2626    2.1580  -12.0711 H         1 UNK         0.0850 
    117 H117       26.5215   -0.1258  -12.7213 H         1 UNK         0.0810 
    118 H118       25.3492    0.6365  -11.6584 H         1 UNK         0.0810 
    119 H119       26.4329   -0.6021  -11.0324 H         1 UNK         0.0810 
    120 H120       28.8760    0.1001   -9.6374 H         1 UNK         0.3040 
    121 H121       31.2072   -0.2658  -11.4900 H         1 UNK         0.0766 
    122 H122       30.1655   -2.4230  -10.8043 H         1 UNK         0.0812 
    123 H123       30.3572   -1.9998   -9.1051 H         1 UNK         0.0812 
    124 H124       31.7707   -2.2367  -10.1164 H         1 UNK         0.0812 
    125 H125       30.2451    0.2446   -8.0910 H         1 UNK         0.3205 
    126 H126       30.9848    1.3720   -6.3841 H         1 UNK         0.0754 
    127 H127       31.0121    3.3688   -7.8501 H         1 UNK         0.0769 
    128 H128       32.6836    3.0445   -8.3096 H         1 UNK         0.0769 
    129 H129       32.2886    3.4616   -6.6481 H         1 UNK         0.0769 
    130 H130       33.6845    0.4171   -8.4491 H         1 UNK         0.2981 
    131 H131       35.5629   -0.6715   -8.1335 H         1 UNK         0.0541 
    132 H132       35.3921    2.2049   -6.9243 H         1 UNK         0.3459 
    133 H133       36.9019    2.2898   -6.0493 H         1 UNK         0.3459 
    134 H134       35.8181   -2.3469   -6.3421 H         1 UNK         0.0612 
    135 H135       34.5384   -1.6099   -5.4201 H         1 UNK         0.0612 
    136 H136       33.0007   -4.9299   -6.3415 H         1 UNK         0.0624 
    137 H137       33.8316   -3.9553   -5.1631 H         1 UNK         0.0624 
@<TRIPOS>BOND
     1    1    2 1    
     2    1   72 1    
     3    1   73 1    
     4    1   74 1    
     5    2    3 2    
     6    2    4 am   BACKBONE|DICT|INTERRES
     7    4    5 1    
     8    4   75 1    
     9    5    6 1    
    10    5   35 1    
    11    5   76 1    
    12    6    7 1    
    13    6   77 1    
    14    6   78 1    
    15    7    8 1    
    16    8    9 1    
    17    8   79 1    
    18    8   80 1    
    19    9   10 ar   
    20    9   14 ar   
    21   10   11 ar   
    22   10   81 1    
    23   11   12 ar   
    24   11   71 1    
    25   12   13 ar   
    26   12   82 1    
    27   13   14 ar   
    28   13   15 1    
    29   14   83 1    
    30   15   16 1    
    31   15   84 1    
    32   15   85 1    
    33   16   17 1    
    34   17   18 1    
    35   17   86 1    
    36   17   87 1    
    37   18   19 1    
    38   18   37 1    
    39   18   88 1    
    40   19   20 am   BACKBONE|DICT|INTERRES
    41   19   89 1    
    42   20   21 2    
    43   20   22 1    
    44   22   23 1    
    45   22   24 1    
    46   22   90 1    
    47   23   91 1    
    48   23   92 1    
    49   23   93 1    
    50   24   25 am   BACKBONE|DICT|INTERRES
    51   24   94 1    
    52   25   26 2    
    53   25   27 1    
    54   27   28 1    
    55   27   29 1    
    56   27   95 1    
    57   28   96 1    
    58   28   97 1    
    59   28   98 1    
    60   29   30 am   BACKBONE|DICT|INTERRES
    61   29   99 1    
    62   30   31 2    
    63   30   32 1    
    64   32   33 1    
    65   32   34 1    
    66   32  100 1    
    67   33  101 1    
    68   33  102 1    
    69   33  103 1    
    70   34   35 am   BACKBONE|DICT|INTERRES
    71   34  104 1    
    72   35   36 2    
    73   37   38 2    
    74   37   39 am   BACKBONE|DICT|INTERRES
    75   39   40 1    
    76   39  105 1    
    77   40   41 1    
    78   40   42 1    
    79   40  106 1    
    80   41  107 1    
    81   41  108 1    
    82   41  109 1    
    83   42   43 2    
    84   42   44 am   BACKBONE|DICT|INTERRES
    85   44   45 1    
    86   44  110 1    
    87   45   46 1    
    88   45   47 1    
    89   45  111 1    
    90   46  112 1    
    91   46  113 1    
    92   46  114 1    
    93   47   48 2    
    94   47   49 am   BACKBONE|DICT|INTERRES
    95   49   50 1    
    96   49  115 1    
    97   50   51 1    
    98   50   52 1    
    99   50  116 1    
   100   51  117 1    
   101   51  118 1    
   102   51  119 1    
   103   52   53 2    
   104   52   54 am   BACKBONE|DICT|INTERRES
   105   54   55 1    
   106   54  120 1    
   107   55   56 1    
   108   55   57 1    
   109   55  121 1    
   110   56  122 1    
   111   56  123 1    
   112   56  124 1    
   113   57   58 2    
   114   57   59 am   BACKBONE|DICT|INTERRES
   115   59   60 1    
   116   59  125 1    
   117   60   61 1    
   118   60   62 1    
   119   60  126 1    
   120   61  127 1    
   121   61  128 1    
   122   61  129 1    
   123   62   63 2    
   124   62   64 am   BACKBONE|DICT|INTERRES
   125   64   65 1    
   126   64  130 1    
   127   65   66 1    
   128   65   69 1    
   129   65  131 1    
   130   66   67 am   BACKBONE|DICT|INTERRES
   131   66   68 2    
   132   67  132 1    
   133   67  133 1    
   134   69   70 1    
   135   69  134 1    
   136   69  135 1    
   137   70   71 1    
   138   71  136 1    
   139   71  137 1    
@<TRIPOS>SUBSTRUCTURE
     1 UNK         1 GROUP             0       ****    0 ROOT    
