@<TRIPOS>MOLECULE
3R137
137   139    1
SMALL
USER_CHARGES


@<TRIPOS>ATOM
      1 CA         24.4335   -5.6181   -2.4868 C.3       0 UNK        -0.2020 
      2 C          25.4387   -4.4877   -2.6451 C.2       0 UNK         0.4855 
      3 O          25.8312   -4.1885   -3.7713 O.2       0 UNK        -0.5197 
      4 N          25.8423   -3.8714   -1.5261 N.am      1 UNK        -0.4892 
      5 CA         26.7769   -2.7444   -1.4035 C.3       1 UNK         0.0835 
      6 C6         28.1835   -2.9992   -2.0047 C.3       12 UNK        -0.0855 
      7 S7         29.0402   -4.4099   -1.2276 S.3       12 UNK        -0.2931 
      8 C8         30.7855   -3.9946   -1.5716 C.3       12 UNK         0.0378 
      9 C9         31.0541   -3.7711   -3.0561 C.ar      12 UNK        -0.0802 
     10 C10        31.6623   -2.5903   -3.4959 C.ar      12 UNK        -0.0944 
     11 C11        31.8794   -2.3662   -4.8600 C.ar      12 UNK        -0.0787 
     12 C12        31.4862   -3.3388   -5.7840 C.ar      12 UNK        -0.0862 
     13 C13        30.8644   -4.5153   -5.3588 C.ar      12 UNK        -0.0733 
     14 C14        30.6722   -4.7351   -3.9932 C.ar      12 UNK        -0.0832 
     15 C15        30.3668   -5.5384   -6.3704 C.3       12 UNK         0.0240 
     16 S16        29.0449   -4.8873   -7.4476 S.3       12 UNK        -0.2522 
     17 C17        27.8009   -4.2533   -6.2639 C.3       12 UNK        -0.0967 
     18 CA         27.2489   -2.8675   -6.6838 C.3       5 UNK         0.0660 
     19 N          25.9223   -2.5954   -6.1196 N.am      5 UNK        -0.4015 
     20 C          25.1244   -1.6004   -6.5354 C.2       4 UNK         0.4946 
     21 O          25.4703   -0.7658   -7.3741 O.2       4 UNK        -0.5353 
     22 CA         23.7188   -1.4778   -5.9363 C.3       4 UNK         0.0277 
     23 CB         23.2417   -2.6815   -5.1030 C.3       4 UNK        -0.1981 
     24 N          23.6828   -0.2733   -5.1183 N.am      4 UNK        -0.4209 
     25 C          22.6931    0.6269   -5.0950 C.2       3 UNK         0.4942 
     26 O          21.6804    0.5434   -5.7925 O.2       3 UNK        -0.5208 
     27 CA         22.8628    1.8376   -4.1501 C.3       3 UNK         0.0250 
     28 CB         21.5263    2.2770   -3.5138 C.3       3 UNK        -0.1990 
     29 N          23.9016    1.6656   -3.1220 N.am      3 UNK        -0.4232 
     30 C          23.9319    0.7503   -2.1410 C.2       2 UNK         0.4993 
     31 O          23.0409   -0.0730   -1.9213 O.2       2 UNK        -0.5286 
     32 CA         25.1854    0.7612   -1.2531 C.3       2 UNK         0.0209 
     33 CB         24.8860    1.4452    0.0910 C.3       2 UNK        -0.1931 
     34 N          25.7110   -0.5836   -1.0038 N.am      2 UNK        -0.4546 
     35 C          26.1627   -1.4337   -1.9380 C.2       1 UNK         0.5154 
     36 O          26.1504   -1.1954   -3.1509 O.2       1 UNK        -0.5181 
     37 C          28.2512   -1.7178   -6.4463 C.2       5 UNK         0.5014 
     38 O          29.0654   -1.4520   -7.3327 O.2       5 UNK        -0.5248 
     39 N          28.1339   -1.0001   -5.3146 N.am      6 UNK        -0.4434 
     40 CA         28.9412    0.1914   -5.0272 C.3       6 UNK         0.0363 
     41 CB         28.6721    0.7075   -3.6068 C.3       6 UNK        -0.1936 
     42 C          28.7325    1.3198   -6.0478 C.2       6 UNK         0.5081 
     43 O          29.7057    1.9487   -6.4625 O.2       6 UNK        -0.5248 
     44 N          27.4719    1.5327   -6.4458 N.am      7 UNK        -0.4718 
     45 CA         27.0811    2.5203   -7.4490 C.3       7 UNK         0.0273 
     46 CB         25.5834    2.8363   -7.2985 C.3       7 UNK        -0.1935 
     47 C          27.4023    2.0493   -8.8753 C.2       7 UNK         0.5018 
     48 O          27.8628    2.8556   -9.6836 O.2       7 UNK        -0.5186 
     49 N          27.1490    0.7631   -9.1578 N.am      8 UNK        -0.4240 
     50 CA         27.3502    0.1499  -10.4710 C.3       8 UNK         0.0235 
     51 CB         26.6639   -1.2246  -10.5172 C.3       8 UNK        -0.2000 
     52 C          28.8297    0.0319  -10.8682 C.2       8 UNK         0.4941 
     53 O          29.1760    0.3986  -11.9922 O.2       8 UNK        -0.5273 
     54 N          29.6708   -0.4868   -9.9616 N.am      9 UNK        -0.4262 
     55 CA         31.0965   -0.7030  -10.2215 C.3       9 UNK         0.0264 
     56 CB         31.6215   -1.8252   -9.3179 C.3       9 UNK        -0.1955 
     57 C          31.9383    0.5667  -10.0277 C.2       9 UNK         0.5031 
     58 O          32.9457    0.7136  -10.7209 O.2       9 UNK        -0.5390 
     59 N          31.5198    1.4436   -9.0990 N.am      10 UNK        -0.4204 
     60 CA         32.1684    2.7036   -8.7148 C.3       10 UNK         0.0237 
     61 CB         32.0596    3.7383   -9.8553 C.3       10 UNK        -0.1985 
     62 C          33.6149    2.4911   -8.2253 C.2       10 UNK         0.4970 
     63 O          34.5583    2.9740   -8.8552 O.2       10 UNK        -0.4914 
     64 N          33.7582    1.7537   -7.1142 N.am      11 UNK        -0.4285 
     65 CA         35.0524    1.4314   -6.4816 C.3       11 UNK         0.1007 
     66 C          35.8554    2.6606   -5.9581 C.2       11 UNK         0.5703 
     67 N          35.2310    3.8054   -5.7056 N.am      11 UNK        -0.7361 
     68 O          37.0676    2.5698   -5.7783 O.2       11 UNK        -0.4986 
     69 C69        34.9106    0.3811   -5.3462 C.3       12 UNK        -0.0947 
     70 S70        34.2051   -1.2189   -5.8730 S.3       12 UNK        -0.2240 
     71 C71        32.4776   -1.0480   -5.3333 C.3       12 UNK         0.0194 
     72 H72        24.1671   -5.7880   -1.4438 H         1 UNK         0.0906 
     73 H73        23.5219   -5.3868   -3.0373 H         1 UNK         0.0906 
     74 H74        24.8473   -6.5434   -2.8867 H         1 UNK         0.0906 
     75 H75        25.4561   -4.1860   -0.6468 H         1 UNK         0.3140 
     76 H76        26.9257   -2.6127   -0.3303 H         1 UNK         0.1085 
     77 H77        28.1311   -3.1661   -3.0810 H         1 UNK         0.0836 
     78 H78        28.8107   -2.1178   -1.8666 H         1 UNK         0.0836 
     79 H79        31.0565   -3.1116   -0.9907 H         1 UNK         0.0731 
     80 H80        31.4205   -4.8063   -1.2144 H         1 UNK         0.0731 
     81 H81        31.9516   -1.8358   -2.7771 H         1 UNK         0.1312 
     82 H82        31.6319   -3.1734   -6.8399 H         1 UNK         0.1406 
     83 H83        30.1893   -5.6424   -3.6559 H         1 UNK         0.1631 
     84 H84        29.9968   -6.4336   -5.8681 H         1 UNK         0.0717 
     85 H85        31.2025   -5.8600   -6.9932 H         1 UNK         0.0717 
     86 H86        26.9909   -4.9839   -6.2402 H         1 UNK         0.0934 
     87 H87        28.1936   -4.2232   -5.2478 H         1 UNK         0.0934 
     88 H88        27.0905   -2.9104   -7.7623 H         1 UNK         0.0739 
     89 H89        25.6426   -3.1818   -5.3343 H         1 UNK         0.3093 
     90 H90        23.0461   -1.3725   -6.7901 H         1 UNK         0.0818 
     91 H91        22.1693   -2.6186   -4.9183 H         1 UNK         0.0819 
     92 H92        23.4238   -3.6296   -5.6107 H         1 UNK         0.0819 
     93 H93        23.7306   -2.7100   -4.1306 H         1 UNK         0.0819 
     94 H94        24.4772   -0.1405   -4.5059 H         1 UNK         0.3041 
     95 H95        23.2045    2.6566   -4.7848 H         1 UNK         0.0784 
     96 H96        20.8009    2.5580   -4.2783 H         1 UNK         0.0793 
     97 H97        21.0781    1.4793   -2.9208 H         1 UNK         0.0793 
     98 H98        21.6607    3.1426   -2.8652 H         1 UNK         0.0793 
     99 H99        24.6823    2.3033   -3.1990 H         1 UNK         0.3024 
    100 H100       25.9707    1.3282   -1.7566 H         1 UNK         0.1171 
    101 H101       24.1279    0.9036    0.6587 H         1 UNK         0.0786 
    102 H102       24.5151    2.4600   -0.0604 H         1 UNK         0.0786 
    103 H103       25.7810    1.5188    0.7092 H         1 UNK         0.0786 
    104 H104       25.7277   -0.8759   -0.0377 H         1 UNK         0.2977 
    105 H105       27.4144   -1.2451   -4.6386 H         1 UNK         0.3127 
    106 H106       29.9851   -0.1053   -5.0760 H         1 UNK         0.0770 
    107 H107       28.8968   -0.0491   -2.8578 H         1 UNK         0.0814 
    108 H108       27.6352    1.0171   -3.4813 H         1 UNK         0.0814 
    109 H109       29.2975    1.5730   -3.3836 H         1 UNK         0.0814 
    110 H110       26.7496    0.9114   -6.1108 H         1 UNK         0.2983 
    111 H111       27.6428    3.4401   -7.2689 H         1 UNK         0.0947 
    112 H112       25.2677    3.5806   -8.0307 H         1 UNK         0.0806 
    113 H113       25.3617    3.2408   -6.3110 H         1 UNK         0.0806 
    114 H114       24.9631    1.9512   -7.4460 H         1 UNK         0.0806 
    115 H115       26.7130    0.1853   -8.4424 H         1 UNK         0.3000 
    116 H116       26.8615    0.7905  -11.2084 H         1 UNK         0.0850 
    117 H117       26.7312   -1.6591  -11.5154 H         1 UNK         0.0810 
    118 H118       25.6057   -1.1505  -10.2653 H         1 UNK         0.0810 
    119 H119       27.1252   -1.9286   -9.8258 H         1 UNK         0.0810 
    120 H120       29.3198   -0.7835   -9.0515 H         1 UNK         0.3040 
    121 H121       31.2180   -1.0294  -11.2570 H         1 UNK         0.0766 
    122 H122       32.6526   -2.0796   -9.5663 H         1 UNK         0.0812 
    123 H123       31.0248   -2.7329   -9.4130 H         1 UNK         0.0812 
    124 H124       31.6053   -1.5171   -8.2751 H         1 UNK         0.0812 
    125 H125       30.6836    1.2151   -8.5769 H         1 UNK         0.3205 
    126 H126       31.6093    3.1010   -7.8671 H         1 UNK         0.0754 
    127 H127       32.4711    4.7008   -9.5489 H         1 UNK         0.0769 
    128 H128       31.0196    3.9047  -10.1374 H         1 UNK         0.0769 
    129 H129       32.6014    3.4223  -10.7475 H         1 UNK         0.0769 
    130 H130       32.9347    1.3953   -6.6564 H         1 UNK         0.2981 
    131 H131       35.6709    0.9837   -7.2618 H         1 UNK         0.0541 
    132 H132       34.2377    3.8906   -5.8466 H         1 UNK         0.3459 
    133 H133       35.7629    4.5930   -5.3703 H         1 UNK         0.3459 
    134 H134       34.3334    0.7922   -4.5167 H         1 UNK         0.0612 
    135 H135       35.8932    0.1526   -4.9287 H         1 UNK         0.0612 
    136 H136       32.4004   -0.3081   -4.5362 H         1 UNK         0.0624 
    137 H137       31.8949   -0.6562   -6.1667 H         1 UNK         0.0624 
@<TRIPOS>BOND
     1    1    2 1    
     2    1   72 1    
     3    1   73 1    
     4    1   74 1    
     5    2    3 2    
     6    2    4 am   BACKBONE|DICT|INTERRES
     7    4    5 1    
     8    4   75 1    
     9    5    6 1    
    10    5   35 1    
    11    5   76 1    
    12    6    7 1    
    13    6   77 1    
    14    6   78 1    
    15    7    8 1    
    16    8    9 1    
    17    8   79 1    
    18    8   80 1    
    19    9   10 ar   
    20    9   14 ar   
    21   10   11 ar   
    22   10   81 1    
    23   11   12 ar   
    24   11   71 1    
    25   12   13 ar   
    26   12   82 1    
    27   13   14 ar   
    28   13   15 1    
    29   14   83 1    
    30   15   16 1    
    31   15   84 1    
    32   15   85 1    
    33   16   17 1    
    34   17   18 1    
    35   17   86 1    
    36   17   87 1    
    37   18   19 1    
    38   18   37 1    
    39   18   88 1    
    40   19   20 am   BACKBONE|DICT|INTERRES
    41   19   89 1    
    42   20   21 2    
    43   20   22 1    
    44   22   23 1    
    45   22   24 1    
    46   22   90 1    
    47   23   91 1    
    48   23   92 1    
    49   23   93 1    
    50   24   25 am   BACKBONE|DICT|INTERRES
    51   24   94 1    
    52   25   26 2    
    53   25   27 1    
    54   27   28 1    
    55   27   29 1    
    56   27   95 1    
    57   28   96 1    
    58   28   97 1    
    59   28   98 1    
    60   29   30 am   BACKBONE|DICT|INTERRES
    61   29   99 1    
    62   30   31 2    
    63   30   32 1    
    64   32   33 1    
    65   32   34 1    
    66   32  100 1    
    67   33  101 1    
    68   33  102 1    
    69   33  103 1    
    70   34   35 am   BACKBONE|DICT|INTERRES
    71   34  104 1    
    72   35   36 2    
    73   37   38 2    
    74   37   39 am   BACKBONE|DICT|INTERRES
    75   39   40 1    
    76   39  105 1    
    77   40   41 1    
    78   40   42 1    
    79   40  106 1    
    80   41  107 1    
    81   41  108 1    
    82   41  109 1    
    83   42   43 2    
    84   42   44 am   BACKBONE|DICT|INTERRES
    85   44   45 1    
    86   44  110 1    
    87   45   46 1    
    88   45   47 1    
    89   45  111 1    
    90   46  112 1    
    91   46  113 1    
    92   46  114 1    
    93   47   48 2    
    94   47   49 am   BACKBONE|DICT|INTERRES
    95   49   50 1    
    96   49  115 1    
    97   50   51 1    
    98   50   52 1    
    99   50  116 1    
   100   51  117 1    
   101   51  118 1    
   102   51  119 1    
   103   52   53 2    
   104   52   54 am   BACKBONE|DICT|INTERRES
   105   54   55 1    
   106   54  120 1    
   107   55   56 1    
   108   55   57 1    
   109   55  121 1    
   110   56  122 1    
   111   56  123 1    
   112   56  124 1    
   113   57   58 2    
   114   57   59 am   BACKBONE|DICT|INTERRES
   115   59   60 1    
   116   59  125 1    
   117   60   61 1    
   118   60   62 1    
   119   60  126 1    
   120   61  127 1    
   121   61  128 1    
   122   61  129 1    
   123   62   63 2    
   124   62   64 am   BACKBONE|DICT|INTERRES
   125   64   65 1    
   126   64  130 1    
   127   65   66 1    
   128   65   69 1    
   129   65  131 1    
   130   66   67 am   BACKBONE|DICT|INTERRES
   131   66   68 2    
   132   67  132 1    
   133   67  133 1    
   134   69   70 1    
   135   69  134 1    
   136   69  135 1    
   137   70   71 1    
   138   71  136 1    
   139   71  137 1    
@<TRIPOS>SUBSTRUCTURE
     1 UNK         1 GROUP             0       ****    0 ROOT    
