@<TRIPOS>MOLECULE
3R137
137   139    1
SMALL
USER_CHARGES


@<TRIPOS>ATOM
      1 CA         24.6920   -6.5355   -0.9031 C.3       0 UNK        -0.2020 
      2 C          25.7987   -5.5013   -1.0393 C.2       0 UNK         0.4855 
      3 O          26.1064   -4.7996   -0.0751 O.2       0 UNK        -0.5197 
      4 N          26.3932   -5.3831   -2.2340 N.am      1 UNK        -0.4892 
      5 CA         27.4818   -4.4544   -2.5682 C.3       1 UNK         0.0835 
      6 C6         28.3450   -5.0457   -3.7209 C.3       12 UNK        -0.0855 
      7 S7         29.7983   -4.0806   -4.2661 S.3       12 UNK        -0.2931 
      8 C8         30.8792   -4.0331   -2.8022 C.3       12 UNK         0.0378 
      9 C9         31.5742   -2.6828   -2.7250 C.ar      12 UNK        -0.0802 
     10 C10        32.9156   -2.5460   -3.0981 C.ar      12 UNK        -0.0944 
     11 C11        33.5315   -1.2900   -3.0776 C.ar      12 UNK        -0.0787 
     12 C12        32.7949   -0.1697   -2.6776 C.ar      12 UNK        -0.0862 
     13 C13        31.4574   -0.2962   -2.2893 C.ar      12 UNK        -0.0733 
     14 C14        30.8557   -1.5574   -2.3083 C.ar      12 UNK        -0.0832 
     15 C15        30.6769    0.9268   -1.8252 C.3       12 UNK         0.0240 
     16 S16        29.9941    1.8846   -3.2166 S.3       12 UNK        -0.2522 
     17 C17        28.4735    0.9568   -3.6061 C.3       12 UNK        -0.0967 
     18 CA         28.0821    1.0706   -5.0998 C.3       5 UNK         0.0660 
     19 N          27.3691   -0.1192   -5.5713 N.am      5 UNK        -0.4015 
     20 C          27.0856   -0.3850   -6.8532 C.2       4 UNK         0.4946 
     21 O          27.4393    0.3267   -7.7915 O.2       4 UNK        -0.5353 
     22 CA         26.2557   -1.6425   -7.1397 C.3       4 UNK         0.0277 
     23 CB         27.1684   -2.8707   -7.2856 C.3       4 UNK        -0.1981 
     24 N          25.2587   -1.8736   -6.0930 N.am      4 UNK        -0.4209 
     25 C          24.1247   -1.1680   -5.9697 C.2       3 UNK         0.4942 
     26 O          23.7628   -0.3096   -6.7745 O.2       3 UNK        -0.5208 
     27 CA         23.2675   -1.4380   -4.7197 C.3       3 UNK         0.0250 
     28 CB         22.3536   -2.6537   -4.9413 C.3       3 UNK        -0.1990 
     29 N          24.0635   -1.6380   -3.5047 N.am      3 UNK        -0.4232 
     30 C          24.8408   -0.7005   -2.9440 C.2       2 UNK         0.4993 
     31 O          24.9464    0.4473   -3.3734 O.2       2 UNK        -0.5286 
     32 CA         25.6891   -1.1221   -1.7321 C.3       2 UNK         0.0209 
     33 CB         24.8844   -0.9592   -0.4333 C.3       2 UNK        -0.1931 
     34 N          26.2361   -2.4831   -1.7965 N.am      2 UNK        -0.4546 
     35 C          26.9353   -3.0238   -2.8050 C.2       1 UNK         0.5154 
     36 O          27.1157   -2.4439   -3.8761 O.2       1 UNK        -0.5181 
     37 C          27.3055    2.3647   -5.4154 C.2       5 UNK         0.5014 
     38 O          27.8872    3.3003   -5.9655 O.2       5 UNK        -0.5248 
     39 N          25.9926    2.3681   -5.1400 N.am      6 UNK        -0.4434 
     40 CA         25.0617    3.4477   -5.4860 C.3       6 UNK         0.0363 
     41 CB         23.6829    3.1408   -4.8807 C.3       6 UNK        -0.1936 
     42 C          24.9384    3.6938   -7.0016 C.2       6 UNK         0.5081 
     43 O          24.7407    4.8367   -7.4141 O.2       6 UNK        -0.5248 
     44 N          25.0809    2.6292   -7.8021 N.am      7 UNK        -0.4718 
     45 CA         25.1064    2.6790   -9.2664 C.3       7 UNK         0.0273 
     46 CB         24.6593    1.3116   -9.8116 C.3       7 UNK        -0.1935 
     47 C          26.4840    3.0631   -9.8439 C.2       7 UNK         0.5018 
     48 O          26.5838    3.2412  -11.0585 O.2       7 UNK        -0.5186 
     49 N          27.5155    3.1543   -8.9879 N.am      8 UNK        -0.4240 
     50 CA         28.9349    3.3600   -9.3080 C.3       8 UNK         0.0235 
     51 CB         29.1694    4.7538   -9.9289 C.3       8 UNK        -0.2000 
     52 C          29.5424    2.2142  -10.1461 C.2       8 UNK         0.4941 
     53 O          30.4628    2.4482  -10.9316 O.2       8 UNK        -0.5273 
     54 N          29.0204    0.9957   -9.9578 N.am      9 UNK        -0.4262 
     55 CA         29.4306   -0.2292  -10.6454 C.3       9 UNK         0.0264 
     56 CB         28.1624   -0.9771  -11.0931 C.3       9 UNK        -0.1955 
     57 C          30.3008   -1.1393   -9.7598 C.2       9 UNK         0.5031 
     58 O          30.8757   -2.0978  -10.2785 O.2       9 UNK        -0.5390 
     59 N          30.3681   -0.8560   -8.4512 N.am      10 UNK        -0.4204 
     60 CA         31.1455   -1.6131   -7.4686 C.3       10 UNK         0.0237 
     61 CB         30.7865   -1.1345   -6.0559 C.3       10 UNK        -0.1985 
     62 C          32.6624   -1.4823   -7.6736 C.2       10 UNK         0.4970 
     63 O          33.1340   -0.4003   -8.0322 O.2       10 UNK        -0.4914 
     64 N          33.3713   -2.5780   -7.3670 N.am      11 UNK        -0.4285 
     65 CA         34.8349   -2.7344   -7.3266 C.3       11 UNK         0.1007 
     66 C          35.6161   -2.1013   -8.5197 C.2       11 UNK         0.5703 
     67 N          36.7454   -1.4443   -8.2881 N.am      11 UNK        -0.7361 
     68 O          35.2340   -2.2709   -9.6761 O.2       11 UNK        -0.4986 
     69 C69        35.4235   -2.4955   -5.9028 C.3       12 UNK        -0.0947 
     70 S70        35.2239   -0.8069   -5.2348 S.3       12 UNK        -0.2240 
     71 C71        34.9984   -1.1363   -3.4575 C.3       12 UNK         0.0194 
     72 H72        24.9479   -7.2577   -0.1284 H         1 UNK         0.0906 
     73 H73        23.7578   -6.0504   -0.6212 H         1 UNK         0.0906 
     74 H74        24.5248   -7.0802   -1.8322 H         1 UNK         0.0906 
     75 H75        26.0753   -5.9673   -2.9952 H         1 UNK         0.3140 
     76 H76        28.1222   -4.3793   -1.6887 H         1 UNK         0.1085 
     77 H77        27.7193   -5.1994   -4.6019 H         1 UNK         0.0836 
     78 H78        28.7017   -6.0370   -3.4365 H         1 UNK         0.0836 
     79 H79        31.6058   -4.8443   -2.8682 H         1 UNK         0.0731 
     80 H80        30.3179   -4.2006   -1.8844 H         1 UNK         0.0731 
     81 H81        33.4755   -3.4152   -3.4131 H         1 UNK         0.1312 
     82 H82        33.2656    0.8039   -2.6619 H         1 UNK         0.1406 
     83 H83        29.8203   -1.6655   -2.0170 H         1 UNK         0.1631 
     84 H84        31.3367    1.5767   -1.2485 H         1 UNK         0.0717 
     85 H85        29.8722    0.6388   -1.1468 H         1 UNK         0.0717 
     86 H86        28.6498   -0.0893   -3.3559 H         1 UNK         0.0934 
     87 H87        27.6683    1.2910   -2.9495 H         1 UNK         0.0934 
     88 H88        28.9993    1.1167   -5.6884 H         1 UNK         0.0739 
     89 H89        27.1087   -0.8109   -4.8736 H         1 UNK         0.3093 
     90 H90        25.7365   -1.4920   -8.0885 H         1 UNK         0.0818 
     91 H91        27.7357   -3.0693   -6.3760 H         1 UNK         0.0819 
     92 H92        26.5943   -3.7657   -7.5245 H         1 UNK         0.0819 
     93 H93        27.8912   -2.7252   -8.0894 H         1 UNK         0.0819 
     94 H94        25.5285   -2.4999   -5.3450 H         1 UNK         0.3041 
     95 H95        22.6361   -0.5609   -4.5611 H         1 UNK         0.0784 
     96 H96        21.7365   -2.5196   -5.8310 H         1 UNK         0.0793 
     97 H97        22.9255   -3.5726   -5.0769 H         1 UNK         0.0793 
     98 H98        21.6765   -2.7999   -4.0994 H         1 UNK         0.0793 
     99 H99        24.0443   -2.5562   -3.0857 H         1 UNK         0.3024 
    100 H100       26.5403   -0.4412   -1.6871 H         1 UNK         0.1171 
    101 H101       25.5078   -1.1326    0.4442 H         1 UNK         0.0786 
    102 H102       24.4804    0.0507   -0.3467 H         1 UNK         0.0786 
    103 H103       24.0437   -1.6528   -0.3893 H         1 UNK         0.0786 
    104 H104       26.1102   -3.0655   -0.9728 H         1 UNK         0.2977 
    105 H105       25.5969    1.5767   -4.6321 H         1 UNK         0.3127 
    106 H106       25.4396    4.3669   -5.0338 H         1 UNK         0.0770 
    107 H107       23.2716    2.2087   -5.2710 H         1 UNK         0.0814 
    108 H108       22.9697    3.9346   -5.1069 H         1 UNK         0.0814 
    109 H109       23.7371    3.0527   -3.7955 H         1 UNK         0.0814 
    110 H110       25.2181    1.7208   -7.3786 H         1 UNK         0.2983 
    111 H111       24.3917    3.4316   -9.6068 H         1 UNK         0.0947 
    112 H112       24.5885    1.3277  -10.8999 H         1 UNK         0.0806 
    113 H113       23.6783    1.0312   -9.4274 H         1 UNK         0.0806 
    114 H114       25.3612    0.5215   -9.5444 H         1 UNK         0.0806 
    115 H115       27.3222    2.9918   -8.0058 H         1 UNK         0.3000 
    116 H116       29.4597    3.3371   -8.3518 H         1 UNK         0.0850 
    117 H117       30.2351    4.9659  -10.0219 H         1 UNK         0.0810 
    118 H118       28.7367    5.5405   -9.3110 H         1 UNK         0.0810 
    119 H119       28.7357    4.8322  -10.9262 H         1 UNK         0.0810 
    120 H120       28.2891    0.8860   -9.2542 H         1 UNK         0.3040 
    121 H121       30.0150    0.0167  -11.5344 H         1 UNK         0.0766 
    122 H122       27.5567   -0.3627  -11.7595 H         1 UNK         0.0812 
    123 H123       27.5401   -1.2610  -10.2436 H         1 UNK         0.0812 
    124 H124       28.4150   -1.8901  -11.6339 H         1 UNK         0.0812 
    125 H125       29.8680   -0.0467   -8.1153 H         1 UNK         0.3205 
    126 H126       30.8644   -2.6648   -7.5591 H         1 UNK         0.0754 
    127 H127       31.3995   -1.6414   -5.3125 H         1 UNK         0.0769 
    128 H128       29.7508   -1.3567   -5.8084 H         1 UNK         0.0769 
    129 H129       30.9613   -0.0660   -5.9298 H         1 UNK         0.0769 
    130 H130       32.8567   -3.4037   -7.0995 H         1 UNK         0.2981 
    131 H131       34.9738   -3.8012   -7.5057 H         1 UNK         0.0541 
    132 H132       37.0597   -1.2874   -7.3432 H         1 UNK         0.3459 
    133 H133       37.2609   -1.0595   -9.0639 H         1 UNK         0.3459 
    134 H134       34.9491   -3.1955   -5.2152 H         1 UNK         0.0612 
    135 H135       36.4835   -2.7526   -5.8775 H         1 UNK         0.0612 
    136 H136       35.4348   -0.3076   -2.8980 H         1 UNK         0.0624 
    137 H137       35.5643   -2.0224   -3.1659 H         1 UNK         0.0624 
@<TRIPOS>BOND
     1    1    2 1    
     2    1   72 1    
     3    1   73 1    
     4    1   74 1    
     5    2    3 2    
     6    2    4 am   BACKBONE|DICT|INTERRES
     7    4    5 1    
     8    4   75 1    
     9    5    6 1    
    10    5   35 1    
    11    5   76 1    
    12    6    7 1    
    13    6   77 1    
    14    6   78 1    
    15    7    8 1    
    16    8    9 1    
    17    8   79 1    
    18    8   80 1    
    19    9   10 ar   
    20    9   14 ar   
    21   10   11 ar   
    22   10   81 1    
    23   11   12 ar   
    24   11   71 1    
    25   12   13 ar   
    26   12   82 1    
    27   13   14 ar   
    28   13   15 1    
    29   14   83 1    
    30   15   16 1    
    31   15   84 1    
    32   15   85 1    
    33   16   17 1    
    34   17   18 1    
    35   17   86 1    
    36   17   87 1    
    37   18   19 1    
    38   18   37 1    
    39   18   88 1    
    40   19   20 am   BACKBONE|DICT|INTERRES
    41   19   89 1    
    42   20   21 2    
    43   20   22 1    
    44   22   23 1    
    45   22   24 1    
    46   22   90 1    
    47   23   91 1    
    48   23   92 1    
    49   23   93 1    
    50   24   25 am   BACKBONE|DICT|INTERRES
    51   24   94 1    
    52   25   26 2    
    53   25   27 1    
    54   27   28 1    
    55   27   29 1    
    56   27   95 1    
    57   28   96 1    
    58   28   97 1    
    59   28   98 1    
    60   29   30 am   BACKBONE|DICT|INTERRES
    61   29   99 1    
    62   30   31 2    
    63   30   32 1    
    64   32   33 1    
    65   32   34 1    
    66   32  100 1    
    67   33  101 1    
    68   33  102 1    
    69   33  103 1    
    70   34   35 am   BACKBONE|DICT|INTERRES
    71   34  104 1    
    72   35   36 2    
    73   37   38 2    
    74   37   39 am   BACKBONE|DICT|INTERRES
    75   39   40 1    
    76   39  105 1    
    77   40   41 1    
    78   40   42 1    
    79   40  106 1    
    80   41  107 1    
    81   41  108 1    
    82   41  109 1    
    83   42   43 2    
    84   42   44 am   BACKBONE|DICT|INTERRES
    85   44   45 1    
    86   44  110 1    
    87   45   46 1    
    88   45   47 1    
    89   45  111 1    
    90   46  112 1    
    91   46  113 1    
    92   46  114 1    
    93   47   48 2    
    94   47   49 am   BACKBONE|DICT|INTERRES
    95   49   50 1    
    96   49  115 1    
    97   50   51 1    
    98   50   52 1    
    99   50  116 1    
   100   51  117 1    
   101   51  118 1    
   102   51  119 1    
   103   52   53 2    
   104   52   54 am   BACKBONE|DICT|INTERRES
   105   54   55 1    
   106   54  120 1    
   107   55   56 1    
   108   55   57 1    
   109   55  121 1    
   110   56  122 1    
   111   56  123 1    
   112   56  124 1    
   113   57   58 2    
   114   57   59 am   BACKBONE|DICT|INTERRES
   115   59   60 1    
   116   59  125 1    
   117   60   61 1    
   118   60   62 1    
   119   60  126 1    
   120   61  127 1    
   121   61  128 1    
   122   61  129 1    
   123   62   63 2    
   124   62   64 am   BACKBONE|DICT|INTERRES
   125   64   65 1    
   126   64  130 1    
   127   65   66 1    
   128   65   69 1    
   129   65  131 1    
   130   66   67 am   BACKBONE|DICT|INTERRES
   131   66   68 2    
   132   67  132 1    
   133   67  133 1    
   134   69   70 1    
   135   69  134 1    
   136   69  135 1    
   137   70   71 1    
   138   71  136 1    
   139   71  137 1    
@<TRIPOS>SUBSTRUCTURE
     1 UNK         1 GROUP             0       ****    0 ROOT    
