@<TRIPOS>MOLECULE
3R137
137   139    1
SMALL
USER_CHARGES


@<TRIPOS>ATOM
      1 CA         28.6497   -3.5153    3.5876 C.3       0 UNK        -0.2020 
      2 C          28.5359   -2.3792    2.5818 C.2       0 UNK         0.4855 
      3 O          28.2340   -1.2487    2.9666 O.2       0 UNK        -0.5197 
      4 N          28.7849   -2.6680    1.2990 N.am      1 UNK        -0.4892 
      5 CA         28.6738   -1.7122    0.1907 C.3       1 UNK         0.0835 
      6 C6         29.3883   -2.2175   -1.0867 C.3       12 UNK        -0.0855 
      7 S7         31.1661   -2.5385   -0.8275 S.3       12 UNK        -0.2931 
      8 C8         31.3287   -4.2343   -1.4728 C.3       12 UNK         0.0378 
      9 C9         31.1378   -4.2800   -2.9826 C.ar      12 UNK        -0.0802 
     10 C10        32.1680   -3.8624   -3.8293 C.ar      12 UNK        -0.0944 
     11 C11        32.0015   -3.8885   -5.2169 C.ar      12 UNK        -0.0787 
     12 C12        30.7997   -4.3546   -5.7580 C.ar      12 UNK        -0.0862 
     13 C13        29.7550   -4.7585   -4.9215 C.ar      12 UNK        -0.0733 
     14 C14        29.9338   -4.7286   -3.5351 C.ar      12 UNK        -0.0832 
     15 C15        28.4277   -5.2181   -5.5057 C.3       12 UNK         0.0240 
     16 S16        27.2915   -3.8171   -5.7583 S.3       12 UNK        -0.2522 
     17 C17        27.6871   -3.3481   -7.4784 C.3       12 UNK        -0.0967 
     18 CA         27.1673   -1.9515   -7.8979 C.3       5 UNK         0.0660 
     19 N          25.7443   -1.7585   -7.5943 N.am      5 UNK        -0.4015 
     20 C          24.9874   -0.7433   -8.0349 C.2       4 UNK         0.4946 
     21 O          25.4218    0.1948   -8.7025 O.2       4 UNK        -0.5353 
     22 CA         23.4981   -0.7651   -7.6586 C.3       4 UNK         0.0277 
     23 CB         22.7004   -1.5969   -8.6754 C.3       4 UNK        -0.1981 
     24 N          23.2539   -1.2689   -6.3045 N.am      4 UNK        -0.4209 
     25 C          23.6142   -0.6211   -5.1882 C.2       3 UNK         0.4942 
     26 O          24.1628    0.4840   -5.1982 O.2       3 UNK        -0.5208 
     27 CA         23.2659   -1.3058   -3.8492 C.3       3 UNK         0.0250 
     28 CB         23.5378   -2.8283   -3.8619 C.3       3 UNK        -0.1990 
     29 N          23.9247   -0.6660   -2.7019 N.am      3 UNK        -0.4232 
     30 C          25.2427   -0.5933   -2.4619 C.2       2 UNK         0.4993 
     31 O          26.1008   -1.1305   -3.1670 O.2       2 UNK        -0.5286 
     32 CA         25.6854    0.2601   -1.2525 C.3       2 UNK         0.0209 
     33 CB         24.6091    0.4047   -0.1503 C.3       2 UNK        -0.1931 
     34 N          26.9582   -0.2072   -0.6874 N.am      2 UNK        -0.4546 
     35 C          27.1973   -1.4048   -0.1325 C.2       1 UNK         0.5154 
     36 O          26.3311   -2.2597    0.0785 O.2       1 UNK        -0.5181 
     37 C          28.0777   -0.8095   -7.4034 C.2       5 UNK         0.5014 
     38 O          29.0639   -0.5043   -8.0773 O.2       5 UNK        -0.5248 
     39 N          27.7057   -0.1440   -6.2992 N.am      6 UNK        -0.4434 
     40 CA         28.3841    1.0551   -5.7989 C.3       6 UNK         0.0363 
     41 CB         27.7674    1.4899   -4.4621 C.3       6 UNK        -0.1936 
     42 C          28.3957    2.2260   -6.7987 C.2       6 UNK         0.5081 
     43 O          29.3501    3.0038   -6.7892 O.2       6 UNK        -0.5248 
     44 N          27.3675    2.3104   -7.6530 N.am      7 UNK        -0.4718 
     45 CA         27.2817    3.2697   -8.7505 C.3       7 UNK         0.0273 
     46 CB         25.8373    3.7844   -8.8694 C.3       7 UNK        -0.1935 
     47 C          27.7466    2.6345  -10.0684 C.2       7 UNK         0.5018 
     48 O          28.6081    3.2029  -10.7379 O.2       7 UNK        -0.5186 
     49 N          27.1771    1.4714  -10.4179 N.am      8 UNK        -0.4240 
     50 CA         27.3456    0.8053  -11.7137 C.3       8 UNK         0.0235 
     51 CB         26.3391   -0.3503  -11.8365 C.3       8 UNK        -0.2000 
     52 C          28.7731    0.3132  -11.9974 C.2       8 UNK         0.4941 
     53 O          29.2230    0.4211  -13.1387 O.2       8 UNK        -0.5273 
     54 N          29.4621   -0.1960  -10.9676 N.am      9 UNK        -0.4262 
     55 CA         30.8703   -0.5996  -11.0339 C.3       9 UNK         0.0264 
     56 CB         31.0241   -1.9943  -10.4010 C.3       9 UNK        -0.1955 
     57 C          31.7919    0.4362  -10.3617 C.2       9 UNK         0.5031 
     58 O          33.0004    0.2076  -10.2983 O.2       9 UNK        -0.5390 
     59 N          31.2145    1.5506   -9.8821 N.am      10 UNK        -0.4204 
     60 CA         31.8539    2.6735   -9.1863 C.3       10 UNK         0.0237 
     61 CB         32.7798    3.4514  -10.1459 C.3       10 UNK        -0.1985 
     62 C          32.5526    2.2770   -7.8691 C.2       10 UNK         0.4970 
     63 O          33.5277    2.9236   -7.4806 O.2       10 UNK        -0.4914 
     64 N          32.0493    1.2290   -7.2030 N.am      11 UNK        -0.4285 
     65 CA         32.5945    0.7102   -5.9386 C.3       11 UNK         0.1007 
     66 C          32.3246    1.6076   -4.6948 C.2       11 UNK         0.5703 
     67 N          31.4421    2.5986   -4.7563 N.am      11 UNK        -0.7361 
     68 O          32.9437    1.4076   -3.6528 O.2       11 UNK        -0.4986 
     69 C69        32.1568   -0.7538   -5.6778 C.3       12 UNK        -0.0947 
     70 S70        32.6192   -1.8840   -7.0346 S.3       12 UNK        -0.2240 
     71 C71        33.1113   -3.3861   -6.1296 C.3       12 UNK         0.0194 
     72 H72        29.3960   -3.2736    4.3440 H         1 UNK         0.0906 
     73 H73        27.6942   -3.6696    4.0883 H         1 UNK         0.0906 
     74 H74        28.9393   -4.4530    3.1136 H         1 UNK         0.0906 
     75 H75        29.0147   -3.6149    1.0356 H         1 UNK         0.3140 
     76 H76        29.1513   -0.7813    0.5059 H         1 UNK         0.1085 
     77 H77        28.8965   -3.1199   -1.4520 H         1 UNK         0.0836 
     78 H78        29.3035   -1.4863   -1.8936 H         1 UNK         0.0836 
     79 H79        32.3207   -4.6133   -1.2221 H         1 UNK         0.0731 
     80 H80        30.6170   -4.8898   -0.9685 H         1 UNK         0.0731 
     81 H81        33.0933   -3.4990   -3.4030 H         1 UNK         0.1312 
     82 H82        30.6746   -4.3753   -6.8313 H         1 UNK         0.1406 
     83 H83        29.1277   -5.0445   -2.8870 H         1 UNK         0.1631 
     84 H84        27.9539   -5.9325   -4.8308 H         1 UNK         0.0717 
     85 H85        28.5854   -5.7507   -6.4449 H         1 UNK         0.0717 
     86 H86        28.7631   -3.4159   -7.6438 H         1 UNK         0.0934 
     87 H87        27.2467   -4.1040   -8.1307 H         1 UNK         0.0934 
     88 H88        27.2421   -1.9167   -8.9861 H         1 UNK         0.0739 
     89 H89        25.3176   -2.4704   -7.0196 H         1 UNK         0.3093 
     90 H90        23.1358    0.2645   -7.7057 H         1 UNK         0.0818 
     91 H91        21.6296   -1.5457   -8.4771 H         1 UNK         0.0819 
     92 H92        22.8573   -1.2260   -9.6896 H         1 UNK         0.0819 
     93 H93        22.9951   -2.6470   -8.6640 H         1 UNK         0.0819 
     94 H94        22.7809   -2.1574   -6.2229 H         1 UNK         0.3041 
     95 H95        22.1953   -1.1586   -3.6999 H         1 UNK         0.0784 
     96 H96        22.8740   -3.3501   -4.5514 H         1 UNK         0.0793 
     97 H97        24.5627   -3.0571   -4.1572 H         1 UNK         0.0793 
     98 H98        23.3741   -3.2653   -2.8767 H         1 UNK         0.0793 
     99 H99        23.3097   -0.1624   -2.0787 H         1 UNK         0.3024 
    100 H100       25.8814    1.2562   -1.6532 H         1 UNK         0.1171 
    101 H101       23.7446    0.9657   -0.5067 H         1 UNK         0.0786 
    102 H102       24.2531   -0.5638    0.2034 H         1 UNK         0.0786 
    103 H103       25.0000    0.9464    0.7111 H         1 UNK         0.0786 
    104 H104       27.7452    0.4066   -0.8444 H         1 UNK         0.2977 
    105 H105       26.8898   -0.4565   -5.7891 H         1 UNK         0.3127 
    106 H106       29.4229    0.7842   -5.6142 H         1 UNK         0.0770 
    107 H107       26.6945    1.6663   -4.5499 H         1 UNK         0.0814 
    108 H108       28.2245    2.4119   -4.0998 H         1 UNK         0.0814 
    109 H109       27.9260    0.7327   -3.6950 H         1 UNK         0.0814 
    110 H110       26.6487    1.5967   -7.6200 H         1 UNK         0.2983 
    111 H111       27.9260    4.1288   -8.5489 H         1 UNK         0.0947 
    112 H112       25.7423    4.4937   -9.6928 H         1 UNK         0.0806 
    113 H113       25.5281    4.3009   -7.9606 H         1 UNK         0.0806 
    114 H114       25.1272    2.9764   -9.0502 H         1 UNK         0.0806 
    115 H115       26.4916    1.0559   -9.7859 H         1 UNK         0.3000 
    116 H116       27.1024    1.5409  -12.4835 H         1 UNK         0.0850 
    117 H117       26.4083   -0.8261  -12.8158 H         1 UNK         0.0810 
    118 H118       25.3142    0.0025  -11.7198 H         1 UNK         0.0810 
    119 H119       26.5131   -1.1216  -11.0869 H         1 UNK         0.0810 
    120 H120       29.0347   -0.2467  -10.0469 H         1 UNK         0.3040 
    121 H121       31.1965   -0.6742  -12.0732 H         1 UNK         0.0766 
    122 H122       30.7344   -2.0001   -9.3512 H         1 UNK         0.0812 
    123 H123       32.0582   -2.3372  -10.4522 H         1 UNK         0.0812 
    124 H124       30.4128   -2.7329  -10.9194 H         1 UNK         0.0812 
    125 H125       30.2201    1.6546  -10.0335 H         1 UNK         0.3205 
    126 H126       31.0440    3.3466   -8.9015 H         1 UNK         0.0754 
    127 H127       33.1437    4.3695   -9.6829 H         1 UNK         0.0769 
    128 H128       32.2541    3.7377  -11.0569 H         1 UNK         0.0769 
    129 H129       33.6522    2.8630  -10.4317 H         1 UNK         0.0769 
    130 H130       31.2534    0.7370   -7.5846 H         1 UNK         0.2981 
    131 H131       33.6806    0.6953   -6.0491 H         1 UNK         0.0541 
    132 H132       30.9054    2.7747   -5.5989 H         1 UNK         0.3459 
    133 H133       31.2987    3.1744   -3.9428 H         1 UNK         0.3459 
    134 H134       31.0779   -0.8231   -5.5342 H         1 UNK         0.0612 
    135 H135       32.6111   -1.1161   -4.7541 H         1 UNK         0.0612 
    136 H136       33.3678   -4.1650   -6.8488 H         1 UNK         0.0624 
    137 H137       34.0197   -3.1761   -5.5629 H         1 UNK         0.0624 
@<TRIPOS>BOND
     1    1    2 1    
     2    1   72 1    
     3    1   73 1    
     4    1   74 1    
     5    2    3 2    
     6    2    4 am   BACKBONE|DICT|INTERRES
     7    4    5 1    
     8    4   75 1    
     9    5    6 1    
    10    5   35 1    
    11    5   76 1    
    12    6    7 1    
    13    6   77 1    
    14    6   78 1    
    15    7    8 1    
    16    8    9 1    
    17    8   79 1    
    18    8   80 1    
    19    9   10 ar   
    20    9   14 ar   
    21   10   11 ar   
    22   10   81 1    
    23   11   12 ar   
    24   11   71 1    
    25   12   13 ar   
    26   12   82 1    
    27   13   14 ar   
    28   13   15 1    
    29   14   83 1    
    30   15   16 1    
    31   15   84 1    
    32   15   85 1    
    33   16   17 1    
    34   17   18 1    
    35   17   86 1    
    36   17   87 1    
    37   18   19 1    
    38   18   37 1    
    39   18   88 1    
    40   19   20 am   BACKBONE|DICT|INTERRES
    41   19   89 1    
    42   20   21 2    
    43   20   22 1    
    44   22   23 1    
    45   22   24 1    
    46   22   90 1    
    47   23   91 1    
    48   23   92 1    
    49   23   93 1    
    50   24   25 am   BACKBONE|DICT|INTERRES
    51   24   94 1    
    52   25   26 2    
    53   25   27 1    
    54   27   28 1    
    55   27   29 1    
    56   27   95 1    
    57   28   96 1    
    58   28   97 1    
    59   28   98 1    
    60   29   30 am   BACKBONE|DICT|INTERRES
    61   29   99 1    
    62   30   31 2    
    63   30   32 1    
    64   32   33 1    
    65   32   34 1    
    66   32  100 1    
    67   33  101 1    
    68   33  102 1    
    69   33  103 1    
    70   34   35 am   BACKBONE|DICT|INTERRES
    71   34  104 1    
    72   35   36 2    
    73   37   38 2    
    74   37   39 am   BACKBONE|DICT|INTERRES
    75   39   40 1    
    76   39  105 1    
    77   40   41 1    
    78   40   42 1    
    79   40  106 1    
    80   41  107 1    
    81   41  108 1    
    82   41  109 1    
    83   42   43 2    
    84   42   44 am   BACKBONE|DICT|INTERRES
    85   44   45 1    
    86   44  110 1    
    87   45   46 1    
    88   45   47 1    
    89   45  111 1    
    90   46  112 1    
    91   46  113 1    
    92   46  114 1    
    93   47   48 2    
    94   47   49 am   BACKBONE|DICT|INTERRES
    95   49   50 1    
    96   49  115 1    
    97   50   51 1    
    98   50   52 1    
    99   50  116 1    
   100   51  117 1    
   101   51  118 1    
   102   51  119 1    
   103   52   53 2    
   104   52   54 am   BACKBONE|DICT|INTERRES
   105   54   55 1    
   106   54  120 1    
   107   55   56 1    
   108   55   57 1    
   109   55  121 1    
   110   56  122 1    
   111   56  123 1    
   112   56  124 1    
   113   57   58 2    
   114   57   59 am   BACKBONE|DICT|INTERRES
   115   59   60 1    
   116   59  125 1    
   117   60   61 1    
   118   60   62 1    
   119   60  126 1    
   120   61  127 1    
   121   61  128 1    
   122   61  129 1    
   123   62   63 2    
   124   62   64 am   BACKBONE|DICT|INTERRES
   125   64   65 1    
   126   64  130 1    
   127   65   66 1    
   128   65   69 1    
   129   65  131 1    
   130   66   67 am   BACKBONE|DICT|INTERRES
   131   66   68 2    
   132   67  132 1    
   133   67  133 1    
   134   69   70 1    
   135   69  134 1    
   136   69  135 1    
   137   70   71 1    
   138   71  136 1    
   139   71  137 1    
@<TRIPOS>SUBSTRUCTURE
     1 UNK         1 GROUP             0       ****    0 ROOT    
