@<TRIPOS>MOLECULE
3R137
137   139    1
SMALL
USER_CHARGES


@<TRIPOS>ATOM
      1 CA         23.9628   -6.5332   -4.0128 C.3       0 UNK        -0.2020 
      2 C          24.6316   -5.2430   -3.5676 C.2       0 UNK         0.4855 
      3 O          24.0283   -4.1742   -3.6776 O.2       0 UNK        -0.5197 
      4 N          25.8627   -5.3323   -3.0402 N.am      1 UNK        -0.4892 
      5 CA         26.7337   -4.2139   -2.6299 C.3       1 UNK         0.0835 
      6 C6         27.2560   -3.4002   -3.8469 C.3       12 UNK        -0.0855 
      7 S7         28.4900   -4.3072   -4.8353 S.3       12 UNK        -0.2931 
      8 C8         30.0216   -4.0330   -3.8796 C.3       12 UNK         0.0378 
      9 C9         30.4632   -2.5748   -3.8696 C.ar      12 UNK        -0.0802 
     10 C10        31.2684   -2.0749   -4.8987 C.ar      12 UNK        -0.0944 
     11 C11        31.6988   -0.7445   -4.8768 C.ar      12 UNK        -0.0787 
     12 C12        31.3021    0.0903   -3.8309 C.ar      12 UNK        -0.0862 
     13 C13        30.4790   -0.3894   -2.8105 C.ar      12 UNK        -0.0733 
     14 C14        30.0837   -1.7294   -2.8202 C.ar      12 UNK        -0.0832 
     15 C15        30.0055    0.5537   -1.7154 C.3       12 UNK         0.0240 
     16 S16        28.9905    1.9061   -2.3961 S.3       12 UNK        -0.2522 
     17 C17        27.4748    1.0224   -2.9049 C.3       12 UNK        -0.0967 
     18 CA         27.4206    0.5375   -4.3811 C.3       5 UNK         0.0660 
     19 N          26.1337   -0.1265   -4.6412 N.am      5 UNK        -0.4015 
     20 C          25.7259   -0.6517   -5.8052 C.2       4 UNK         0.4946 
     21 O          26.4088   -0.6314   -6.8262 O.2       4 UNK        -0.5353 
     22 CA         24.3259   -1.2922   -5.8719 C.3       4 UNK         0.0277 
     23 CB         24.3333   -2.5965   -6.6922 C.3       4 UNK        -0.1981 
     24 N          23.7109   -1.5538   -4.5666 N.am      4 UNK        -0.4209 
     25 C          23.0263   -0.6522   -3.8497 C.2       3 UNK         0.4942 
     26 O          22.9630    0.5404   -4.1476 O.2       3 UNK        -0.5208 
     27 CA         22.2954   -1.1513   -2.5959 C.3       3 UNK         0.0250 
     28 CB         20.9762   -1.8403   -2.9835 C.3       3 UNK        -0.1990 
     29 N          23.1158   -2.0816   -1.8177 N.am      3 UNK        -0.4232 
     30 C          23.4455   -1.9163   -0.5278 C.2       2 UNK         0.4993 
     31 O          23.0906   -0.9532    0.1532 O.2       2 UNK        -0.5286 
     32 CA         24.3104   -3.0083    0.1328 C.3       2 UNK         0.0209 
     33 CB         23.4305   -3.9665    0.9525 C.3       2 UNK        -0.1931 
     34 N          25.1009   -3.7862   -0.8240 N.am      2 UNK        -0.4546 
     35 C          26.1230   -3.2980   -1.5400 C.2       1 UNK         0.5154 
     36 O          26.5763   -2.1664   -1.3654 O.2       1 UNK        -0.5181 
     37 C          27.7294    1.6558   -5.4052 C.2       5 UNK         0.5014 
     38 O          28.7869    1.6391   -6.0412 O.2       5 UNK        -0.5248 
     39 N          26.7661    2.5711   -5.5850 N.am      6 UNK        -0.4434 
     40 CA         26.8468    3.6827   -6.5359 C.3       6 UNK         0.0363 
     41 CB         25.7885    4.7352   -6.1679 C.3       6 UNK        -0.1936 
     42 C          26.6885    3.2551   -8.0069 C.2       6 UNK         0.5081 
     43 O          27.1308    3.9894   -8.8902 O.2       6 UNK        -0.5248 
     44 N          26.0560    2.0991   -8.2531 N.am      7 UNK        -0.4718 
     45 CA         25.8979    1.5188   -9.5886 C.3       7 UNK         0.0273 
     46 CB         24.6863    0.5723   -9.6088 C.3       7 UNK        -0.1935 
     47 C          27.1745    0.7934  -10.0415 C.2       7 UNK         0.5018 
     48 O          27.5398    0.8973  -11.2129 O.2       7 UNK        -0.5186 
     49 N          27.8291    0.0884   -9.1066 N.am      8 UNK        -0.4240 
     50 CA         29.1225   -0.5681   -9.2850 C.3       8 UNK         0.0235 
     51 CB         29.4281   -1.4603   -8.0675 C.3       8 UNK        -0.2000 
     52 C          30.2364    0.4584   -9.5328 C.2       8 UNK         0.4941 
     53 O          30.8181    0.4564  -10.6187 O.2       8 UNK        -0.5273 
     54 N          30.4747    1.3305   -8.5393 N.am      9 UNK        -0.4262 
     55 CA         31.3957    2.4774   -8.5167 C.3       9 UNK         0.0264 
     56 CB         30.8874    3.5977   -9.4442 C.3       9 UNK        -0.1955 
     57 C          32.8803    2.1633   -8.7963 C.2       9 UNK         0.5031 
     58 O          33.7272    2.4244   -7.9422 O.2       9 UNK        -0.5390 
     59 N          33.1804    1.6199   -9.9795 N.am      10 UNK        -0.4204 
     60 CA         34.5202    1.3240  -10.4892 C.3       10 UNK         0.0237 
     61 CB         34.5258    1.5434  -12.0141 C.3       10 UNK        -0.1985 
     62 C          34.9865   -0.0892  -10.0912 C.2       10 UNK         0.4970 
     63 O          35.4605   -0.8460  -10.9405 O.2       10 UNK        -0.4914 
     64 N          34.8438   -0.4216   -8.8044 N.am      11 UNK        -0.4285 
     65 CA         35.3063   -1.6802   -8.1958 C.3       11 UNK         0.1007 
     66 C          36.8371   -1.7413   -7.9123 C.2       11 UNK         0.5703 
     67 N          37.5860   -0.6520   -8.0429 N.am      11 UNK        -0.7361 
     68 O          37.3584   -2.8048   -7.5849 O.2       11 UNK        -0.4986 
     69 C69        34.4613   -2.0578   -6.9485 C.3       12 UNK        -0.0947 
     70 S70        34.3185   -0.6970   -5.7378 S.3       12 UNK        -0.2240 
     71 C71        32.5876   -0.1909   -5.9758 C.3       12 UNK         0.0194 
     72 H72        23.0329   -6.6816   -3.4646 H         1 UNK         0.0906 
     73 H73        23.7272   -6.4823   -5.0755 H         1 UNK         0.0906 
     74 H74        24.5990   -7.4023   -3.8471 H         1 UNK         0.0906 
     75 H75        26.2886   -6.2462   -2.9620 H         1 UNK         0.3140 
     76 H76        27.5933   -4.6691   -2.1366 H         1 UNK         0.1085 
     77 H77        27.6850   -2.4430   -3.5624 H         1 UNK         0.0836 
     78 H78        26.4278   -3.1426   -4.5025 H         1 UNK         0.0836 
     79 H79        30.8128   -4.6483   -4.3105 H         1 UNK         0.0731 
     80 H80        29.8874   -4.3947   -2.8594 H         1 UNK         0.0731 
     81 H81        31.5679   -2.7236   -5.7101 H         1 UNK         0.1312 
     82 H82        31.6159    1.1253   -3.8188 H         1 UNK         0.1406 
     83 H83        29.4582   -2.1081   -2.0228 H         1 UNK         0.1631 
     84 H84        30.8750    0.9816   -1.2145 H         1 UNK         0.0717 
     85 H85        29.4382    0.0215   -0.9500 H         1 UNK         0.0717 
     86 H86        27.3347    0.1735   -2.2352 H         1 UNK         0.0934 
     87 H87        26.6357    1.6905   -2.7027 H         1 UNK         0.0934 
     88 H88        28.1914   -0.2229   -4.5173 H         1 UNK         0.0739 
     89 H89        25.4937   -0.1794   -3.8628 H         1 UNK         0.3093 
     90 H90        23.6959   -0.5802   -6.4094 H         1 UNK         0.0818 
     91 H91        24.9618   -3.3627   -6.2397 H         1 UNK         0.0819 
     92 H92        23.3282   -3.0072   -6.7888 H         1 UNK         0.0819 
     93 H93        24.7075   -2.4291   -7.7028 H         1 UNK         0.0819 
     94 H94        23.7451   -2.5222   -4.2487 H         1 UNK         0.3041 
     95 H95        22.0502   -0.2689   -2.0009 H         1 UNK         0.0784 
     96 H96        20.3462   -1.1759   -3.5767 H         1 UNK         0.0793 
     97 H97        21.1478   -2.7425   -3.5725 H         1 UNK         0.0793 
     98 H98        20.4052   -2.1232   -2.0990 H         1 UNK         0.0793 
     99 H99        23.4624   -2.9019   -2.3068 H         1 UNK         0.3024 
    100 H100       25.0007   -2.5046    0.8137 H         1 UNK         0.1171 
    101 H101       24.0338   -4.6988    1.4896 H         1 UNK         0.0786 
    102 H102       22.8482   -3.4213    1.6968 H         1 UNK         0.0786 
    103 H103       22.7256   -4.5083    0.3205 H         1 UNK         0.0786 
    104 H104       24.7895   -4.7259   -1.0240 H         1 UNK         0.2977 
    105 H105       25.9201    2.5001   -5.0380 H         1 UNK         0.3127 
    106 H106       27.8328    4.1425   -6.4376 H         1 UNK         0.0770 
    107 H107       24.7769    4.3328   -6.2357 H         1 UNK         0.0814 
    108 H108       25.8427    5.5936   -6.8391 H         1 UNK         0.0814 
    109 H109       25.9357    5.1099   -5.1548 H         1 UNK         0.0814 
    110 H110       25.7755    1.5255   -7.4707 H         1 UNK         0.2983 
    111 H111       25.7037    2.3245  -10.3006 H         1 UNK         0.0947 
    112 H112       24.5231    0.1750  -10.6115 H         1 UNK         0.0806 
    113 H113       23.7733    1.0891   -9.3131 H         1 UNK         0.0806 
    114 H114       24.8215   -0.2793   -8.9429 H         1 UNK         0.0806 
    115 H115       27.3956   -0.0110   -8.1893 H         1 UNK         0.3000 
    116 H116       29.0552   -1.2085  -10.1669 H         1 UNK         0.0850 
    117 H117       30.4004   -1.9440   -8.1682 H         1 UNK         0.0810 
    118 H118       28.6834   -2.2497   -7.9614 H         1 UNK         0.0810 
    119 H119       29.4358   -0.8954   -7.1343 H         1 UNK         0.0810 
    120 H120       29.9080    1.2395   -7.6991 H         1 UNK         0.3040 
    121 H121       31.3503    2.8605   -7.4957 H         1 UNK         0.0766 
    122 H122       29.8915    3.9288   -9.1502 H         1 UNK         0.0812 
    123 H123       30.8359    3.2768  -10.4851 H         1 UNK         0.0812 
    124 H124       31.5427    4.4688   -9.4030 H         1 UNK         0.0812 
    125 H125       32.3904    1.3020  -10.5415 H         1 UNK         0.3205 
    126 H126       35.2319    2.0277  -10.0523 H         1 UNK         0.0754 
    127 H127       35.5220    1.3885  -12.4308 H         1 UNK         0.0769 
    128 H128       34.2262    2.5604  -12.2684 H         1 UNK         0.0769 
    129 H129       33.8465    0.8575  -12.5220 H         1 UNK         0.0769 
    130 H130       34.4793    0.2717   -8.1636 H         1 UNK         0.2981 
    131 H131       35.1326   -2.4706   -8.9285 H         1 UNK         0.0541 
    132 H132       37.1709    0.2274   -8.3036 H         1 UNK         0.3459 
    133 H133       38.5759   -0.7102   -7.8627 H         1 UNK         0.3459 
    134 H134       34.8768   -2.9298   -6.4402 H         1 UNK         0.0612 
    135 H135       33.4662   -2.3673   -7.2693 H         1 UNK         0.0612 
    136 H136       32.2176   -0.4980   -6.9542 H         1 UNK         0.0624 
    137 H137       32.5477    0.8989   -5.9709 H         1 UNK         0.0624 
@<TRIPOS>BOND
     1    1    2 1    
     2    1   72 1    
     3    1   73 1    
     4    1   74 1    
     5    2    3 2    
     6    2    4 am   BACKBONE|DICT|INTERRES
     7    4    5 1    
     8    4   75 1    
     9    5    6 1    
    10    5   35 1    
    11    5   76 1    
    12    6    7 1    
    13    6   77 1    
    14    6   78 1    
    15    7    8 1    
    16    8    9 1    
    17    8   79 1    
    18    8   80 1    
    19    9   10 ar   
    20    9   14 ar   
    21   10   11 ar   
    22   10   81 1    
    23   11   12 ar   
    24   11   71 1    
    25   12   13 ar   
    26   12   82 1    
    27   13   14 ar   
    28   13   15 1    
    29   14   83 1    
    30   15   16 1    
    31   15   84 1    
    32   15   85 1    
    33   16   17 1    
    34   17   18 1    
    35   17   86 1    
    36   17   87 1    
    37   18   19 1    
    38   18   37 1    
    39   18   88 1    
    40   19   20 am   BACKBONE|DICT|INTERRES
    41   19   89 1    
    42   20   21 2    
    43   20   22 1    
    44   22   23 1    
    45   22   24 1    
    46   22   90 1    
    47   23   91 1    
    48   23   92 1    
    49   23   93 1    
    50   24   25 am   BACKBONE|DICT|INTERRES
    51   24   94 1    
    52   25   26 2    
    53   25   27 1    
    54   27   28 1    
    55   27   29 1    
    56   27   95 1    
    57   28   96 1    
    58   28   97 1    
    59   28   98 1    
    60   29   30 am   BACKBONE|DICT|INTERRES
    61   29   99 1    
    62   30   31 2    
    63   30   32 1    
    64   32   33 1    
    65   32   34 1    
    66   32  100 1    
    67   33  101 1    
    68   33  102 1    
    69   33  103 1    
    70   34   35 am   BACKBONE|DICT|INTERRES
    71   34  104 1    
    72   35   36 2    
    73   37   38 2    
    74   37   39 am   BACKBONE|DICT|INTERRES
    75   39   40 1    
    76   39  105 1    
    77   40   41 1    
    78   40   42 1    
    79   40  106 1    
    80   41  107 1    
    81   41  108 1    
    82   41  109 1    
    83   42   43 2    
    84   42   44 am   BACKBONE|DICT|INTERRES
    85   44   45 1    
    86   44  110 1    
    87   45   46 1    
    88   45   47 1    
    89   45  111 1    
    90   46  112 1    
    91   46  113 1    
    92   46  114 1    
    93   47   48 2    
    94   47   49 am   BACKBONE|DICT|INTERRES
    95   49   50 1    
    96   49  115 1    
    97   50   51 1    
    98   50   52 1    
    99   50  116 1    
   100   51  117 1    
   101   51  118 1    
   102   51  119 1    
   103   52   53 2    
   104   52   54 am   BACKBONE|DICT|INTERRES
   105   54   55 1    
   106   54  120 1    
   107   55   56 1    
   108   55   57 1    
   109   55  121 1    
   110   56  122 1    
   111   56  123 1    
   112   56  124 1    
   113   57   58 2    
   114   57   59 am   BACKBONE|DICT|INTERRES
   115   59   60 1    
   116   59  125 1    
   117   60   61 1    
   118   60   62 1    
   119   60  126 1    
   120   61  127 1    
   121   61  128 1    
   122   61  129 1    
   123   62   63 2    
   124   62   64 am   BACKBONE|DICT|INTERRES
   125   64   65 1    
   126   64  130 1    
   127   65   66 1    
   128   65   69 1    
   129   65  131 1    
   130   66   67 am   BACKBONE|DICT|INTERRES
   131   66   68 2    
   132   67  132 1    
   133   67  133 1    
   134   69   70 1    
   135   69  134 1    
   136   69  135 1    
   137   70   71 1    
   138   71  136 1    
   139   71  137 1    
@<TRIPOS>SUBSTRUCTURE
     1 UNK         1 GROUP             0       ****    0 ROOT    
