@<TRIPOS>MOLECULE
3R137
137   139    1
SMALL
USER_CHARGES


@<TRIPOS>ATOM
      1 CA         26.0239   -5.5870   -4.0663 C.3       0 UNK        -0.2020 
      2 C          27.5243   -5.3083   -4.0966 C.2       0 UNK         0.4855 
      3 O          28.1916   -5.7054   -5.0490 O.2       0 UNK        -0.5197 
      4 N          28.1012   -4.6435   -3.0883 N.am      1 UNK        -0.4892 
      5 CA         27.4627   -4.1342   -1.8670 C.3       1 UNK         0.0835 
      6 C6         28.4642   -3.9941   -0.6799 C.3       12 UNK        -0.0855 
      7 S7         29.8123   -5.2384   -0.6632 S.3       12 UNK        -0.2931 
      8 C8         31.3207   -4.2381   -0.9329 C.3       12 UNK         0.0378 
      9 C9         31.2095   -3.2713   -2.1077 C.ar      12 UNK        -0.0802 
     10 C10        31.3826   -3.7108   -3.4246 C.ar      12 UNK        -0.0944 
     11 C11        31.2692   -2.8112   -4.4919 C.ar      12 UNK        -0.0787 
     12 C12        30.9468   -1.4739   -4.2374 C.ar      12 UNK        -0.0862 
     13 C13        30.7838   -1.0228   -2.9258 C.ar      12 UNK        -0.0733 
     14 C14        30.9422   -1.9203   -1.8679 C.ar      12 UNK        -0.0832 
     15 C15        30.4163    0.4248   -2.6403 C.3       12 UNK         0.0240 
     16 S16        28.7288    0.5159   -1.9660 S.3       12 UNK        -0.2522 
     17 C17        27.9468    1.8637   -2.9079 C.3       12 UNK        -0.0967 
     18 CA         27.8732    1.6712   -4.4477 C.3       5 UNK         0.0660 
     19 N          27.4759    0.3247   -4.8786 N.am      5 UNK        -0.4015 
     20 C          27.4854   -0.0852   -6.1577 C.2       4 UNK         0.4946 
     21 O          27.9216    0.5868   -7.0907 O.2       4 UNK        -0.5353 
     22 CA         26.8595   -1.4462   -6.4779 C.3       4 UNK         0.0277 
     23 CB         27.9056   -2.5643   -6.3742 C.3       4 UNK        -0.1981 
     24 N          25.7069   -1.7291   -5.6239 N.am      4 UNK        -0.4209 
     25 C          24.5092   -1.1432   -5.7715 C.2       3 UNK         0.4942 
     26 O          24.2479   -0.3447   -6.6708 O.2       3 UNK        -0.5208 
     27 CA         23.4304   -1.4686   -4.7235 C.3       3 UNK         0.0250 
     28 CB         22.6592   -2.7372   -5.1211 C.3       3 UNK        -0.1990 
     29 N          23.9671   -1.6251   -3.3696 N.am      3 UNK        -0.4232 
     30 C          24.5638   -0.6480   -2.6725 C.2       2 UNK         0.4993 
     31 O          24.6843    0.5089   -3.0786 O.2       2 UNK        -0.5286 
     32 CA         25.1850   -1.0466   -1.3208 C.3       2 UNK         0.0209 
     33 CB         24.1337   -0.9661   -0.2025 C.3       2 UNK        -0.1931 
     34 N          25.8325   -2.3702   -1.2946 N.am      2 UNK        -0.4546 
     35 C          26.7771   -2.7811   -2.1545 C.2       1 UNK         0.5154 
     36 O          27.1151   -2.1272   -3.1427 O.2       1 UNK        -0.5181 
     37 C          26.9532    2.7459   -5.0595 C.2       5 UNK         0.5014 
     38 O          27.4518    3.7364   -5.5948 O.2       5 UNK        -0.5248 
     39 N          25.6327    2.5149   -4.9877 N.am      6 UNK        -0.4434 
     40 CA         24.5974    3.3847   -5.5515 C.3       6 UNK         0.0363 
     41 CB         23.2123    2.8884   -5.1071 C.3       6 UNK        -0.1936 
     42 C          24.6693    3.4977   -7.0842 C.2       6 UNK         0.5081 
     43 O          24.5304    4.5994   -7.6161 O.2       6 UNK        -0.5248 
     44 N          24.8992    2.3666   -7.7649 N.am      7 UNK        -0.4718 
     45 CA         25.0563    2.2966   -9.2210 C.3       7 UNK         0.0273 
     46 CB         24.8372    0.8434   -9.6728 C.3       7 UNK        -0.1935 
     47 C          26.4195    2.8038   -9.7284 C.2       7 UNK         0.5018 
     48 O          26.5384    3.0819  -10.9224 O.2       7 UNK        -0.5186 
     49 N          27.4194    2.8727   -8.8355 N.am      8 UNK        -0.4240 
     50 CA         28.8481    3.0887   -9.1033 C.3       8 UNK         0.0235 
     51 CB         29.1098    4.5028   -9.6633 C.3       8 UNK        -0.2000 
     52 C          29.4394    1.9644   -9.9790 C.2       8 UNK         0.4941 
     53 O          30.2297    2.2258  -10.8895 O.2       8 UNK        -0.5273 
     54 N          29.0275    0.7220   -9.6960 N.am      9 UNK        -0.4262 
     55 CA         29.3650   -0.4807  -10.4552 C.3       9 UNK         0.0264 
     56 CB         28.2386   -1.5160  -10.2846 C.3       9 UNK        -0.1955 
     57 C          30.7459   -1.0245  -10.0523 C.2       9 UNK         0.5031 
     58 O          30.8375   -2.0977   -9.4532 O.2       9 UNK        -0.5390 
     59 N          31.7889   -0.2604  -10.4023 N.am      10 UNK        -0.4204 
     60 CA         33.2108   -0.5293  -10.1643 C.3       10 UNK         0.0237 
     61 CB         33.6739   -1.7761  -10.9554 C.3       10 UNK        -0.1985 
     62 C          33.5601   -0.5619   -8.6613 C.2       10 UNK         0.4970 
     63 O          33.0068    0.2342   -7.8997 O.2       10 UNK        -0.4914 
     64 N          34.5066   -1.4315   -8.2799 N.am      11 UNK        -0.4285 
     65 CA         35.0836   -1.5709   -6.9290 C.3       11 UNK         0.1007 
     66 C          35.9385   -0.3519   -6.4596 C.2       11 UNK         0.5703 
     67 N          36.3691    0.5368   -7.3480 N.am      11 UNK        -0.7361 
     68 O          36.2531   -0.2235   -5.2784 O.2       11 UNK        -0.4986 
     69 C69        34.0500   -2.0240   -5.8582 C.3       12 UNK        -0.0947 
     70 S70        33.2639   -3.6267   -6.2454 S.3       12 UNK        -0.2240 
     71 C71        31.5052   -3.2741   -5.9238 C.3       12 UNK         0.0194 
     72 H72        25.7732   -6.2686   -3.2540 H         1 UNK         0.0906 
     73 H73        25.4514   -4.6686   -3.9492 H         1 UNK         0.0906 
     74 H74        25.7059   -6.0532   -4.9988 H         1 UNK         0.0906 
     75 H75        29.0873   -4.4314   -3.1511 H         1 UNK         0.3140 
     76 H76        26.6934   -4.8461   -1.5631 H         1 UNK         0.1085 
     77 H77        27.9195   -4.0931    0.2606 H         1 UNK         0.0836 
     78 H78        28.8976   -2.9962   -0.6351 H         1 UNK         0.0836 
     79 H79        32.1635   -4.9112   -1.0963 H         1 UNK         0.0731 
     80 H80        31.5469   -3.6930   -0.0150 H         1 UNK         0.0731 
     81 H81        31.6162   -4.7487   -3.6202 H         1 UNK         0.1312 
     82 H82        30.8347   -0.7818   -5.0611 H         1 UNK         0.1406 
     83 H83        30.8159   -1.5670   -0.8534 H         1 UNK         0.1631 
     84 H84        30.5133    1.0316   -3.5398 H         1 UNK         0.0717 
     85 H85        31.1136    0.8435   -1.9135 H         1 UNK         0.0717 
     86 H86        26.9454    1.9799   -2.4882 H         1 UNK         0.0934 
     87 H87        28.4731    2.7911   -2.6735 H         1 UNK         0.0934 
     88 H88        28.8693    1.8453   -4.8577 H         1 UNK         0.0739 
     89 H89        27.1781   -0.3229   -4.1557 H         1 UNK         0.3093 
     90 H90        26.5102   -1.4132   -7.5117 H         1 UNK         0.0818 
     91 H91        28.7483   -2.3712   -7.0384 H         1 UNK         0.0819 
     92 H92        28.3112   -2.6544   -5.3669 H         1 UNK         0.0819 
     93 H93        27.4851   -3.5282   -6.6594 H         1 UNK         0.0819 
     94 H94        25.8931   -2.2691   -4.7878 H         1 UNK         0.3041 
     95 H95        22.7275   -0.6328   -4.7068 H         1 UNK         0.0784 
     96 H96        22.2276   -2.6330   -6.1177 H         1 UNK         0.0793 
     97 H97        23.3036   -3.6170   -5.1362 H         1 UNK         0.0793 
     98 H98        21.8364   -2.9339   -4.4334 H         1 UNK         0.0793 
     99 H99        23.9065   -2.5418   -2.9518 H         1 UNK         0.3024 
    100 H100       25.9609   -0.3088   -1.1065 H         1 UNK         0.1171 
    101 H101       24.5856   -1.1114    0.7789 H         1 UNK         0.0786 
    102 H102       23.6499    0.0118   -0.1909 H         1 UNK         0.0786 
    103 H103       23.3512   -1.7156   -0.3274 H         1 UNK         0.0786 
    104 H104       25.6007   -2.9617   -0.5091 H         1 UNK         0.2977 
    105 H105       25.3100    1.6978   -4.4735 H         1 UNK         0.3127 
    106 H106       24.7484    4.3847   -5.1397 H         1 UNK         0.0770 
    107 H107       23.0094    1.8798   -5.4689 H         1 UNK         0.0814 
    108 H108       22.4235    3.5377   -5.4892 H         1 UNK         0.0814 
    109 H109       23.1253    2.8761   -4.0204 H         1 UNK         0.0814 
    110 H110       24.9253    1.4854   -7.2601 H         1 UNK         0.2983 
    111 H111       24.2860    2.9183   -9.6830 H         1 UNK         0.0947 
    112 H112       24.9235    0.7500  -10.7563 H         1 UNK         0.0806 
    113 H113       23.8451    0.4868   -9.3949 H         1 UNK         0.0806 
    114 H114       25.5705    0.1709   -9.2268 H         1 UNK         0.0806 
    115 H115       27.2072    2.5779   -7.8900 H         1 UNK         0.3000 
    116 H116       29.3499    3.0170   -8.1370 H         1 UNK         0.0850 
    117 H117       30.1799    4.7009   -9.7331 H         1 UNK         0.0810 
    118 H118       28.6793    5.2691   -9.0187 H         1 UNK         0.0810 
    119 H119       28.6919    4.6294  -10.6623 H         1 UNK         0.0810 
    120 H120       28.4759    0.5930   -8.8491 H         1 UNK         0.3040 
    121 H121       29.4117   -0.2258  -11.5163 H         1 UNK         0.0766 
    122 H122       27.2827   -1.1236  -10.6314 H         1 UNK         0.0812 
    123 H123       28.1218   -1.8175   -9.2453 H         1 UNK         0.0812 
    124 H124       28.4477   -2.4171  -10.8625 H         1 UNK         0.0812 
    125 H125       31.5686    0.6449  -10.8070 H         1 UNK         0.3205 
    126 H126       33.7442    0.3307  -10.5718 H         1 UNK         0.0754 
    127 H127       33.2620   -2.6982  -10.5426 H         1 UNK         0.0769 
    128 H128       34.7606   -1.8677  -10.9593 H         1 UNK         0.0769 
    129 H129       33.3622   -1.7157  -11.9983 H         1 UNK         0.0769 
    130 H130       34.9030   -2.0389   -8.9817 H         1 UNK         0.2981 
    131 H131       35.8120   -2.3773   -7.0189 H         1 UNK         0.0541 
    132 H132       36.1399    0.4405   -8.3235 H         1 UNK         0.3459 
    133 H133       36.9314    1.3124   -7.0349 H         1 UNK         0.3459 
    134 H134       34.5266   -2.1405   -4.8836 H         1 UNK         0.0612 
    135 H135       33.2899   -1.2542   -5.7287 H         1 UNK         0.0612 
    136 H136       30.9172   -4.1725   -6.1167 H         1 UNK         0.0624 
    137 H137       31.1648   -2.5225   -6.6380 H         1 UNK         0.0624 
@<TRIPOS>BOND
     1    1    2 1    
     2    1   72 1    
     3    1   73 1    
     4    1   74 1    
     5    2    3 2    
     6    2    4 am   BACKBONE|DICT|INTERRES
     7    4    5 1    
     8    4   75 1    
     9    5    6 1    
    10    5   35 1    
    11    5   76 1    
    12    6    7 1    
    13    6   77 1    
    14    6   78 1    
    15    7    8 1    
    16    8    9 1    
    17    8   79 1    
    18    8   80 1    
    19    9   10 ar   
    20    9   14 ar   
    21   10   11 ar   
    22   10   81 1    
    23   11   12 ar   
    24   11   71 1    
    25   12   13 ar   
    26   12   82 1    
    27   13   14 ar   
    28   13   15 1    
    29   14   83 1    
    30   15   16 1    
    31   15   84 1    
    32   15   85 1    
    33   16   17 1    
    34   17   18 1    
    35   17   86 1    
    36   17   87 1    
    37   18   19 1    
    38   18   37 1    
    39   18   88 1    
    40   19   20 am   BACKBONE|DICT|INTERRES
    41   19   89 1    
    42   20   21 2    
    43   20   22 1    
    44   22   23 1    
    45   22   24 1    
    46   22   90 1    
    47   23   91 1    
    48   23   92 1    
    49   23   93 1    
    50   24   25 am   BACKBONE|DICT|INTERRES
    51   24   94 1    
    52   25   26 2    
    53   25   27 1    
    54   27   28 1    
    55   27   29 1    
    56   27   95 1    
    57   28   96 1    
    58   28   97 1    
    59   28   98 1    
    60   29   30 am   BACKBONE|DICT|INTERRES
    61   29   99 1    
    62   30   31 2    
    63   30   32 1    
    64   32   33 1    
    65   32   34 1    
    66   32  100 1    
    67   33  101 1    
    68   33  102 1    
    69   33  103 1    
    70   34   35 am   BACKBONE|DICT|INTERRES
    71   34  104 1    
    72   35   36 2    
    73   37   38 2    
    74   37   39 am   BACKBONE|DICT|INTERRES
    75   39   40 1    
    76   39  105 1    
    77   40   41 1    
    78   40   42 1    
    79   40  106 1    
    80   41  107 1    
    81   41  108 1    
    82   41  109 1    
    83   42   43 2    
    84   42   44 am   BACKBONE|DICT|INTERRES
    85   44   45 1    
    86   44  110 1    
    87   45   46 1    
    88   45   47 1    
    89   45  111 1    
    90   46  112 1    
    91   46  113 1    
    92   46  114 1    
    93   47   48 2    
    94   47   49 am   BACKBONE|DICT|INTERRES
    95   49   50 1    
    96   49  115 1    
    97   50   51 1    
    98   50   52 1    
    99   50  116 1    
   100   51  117 1    
   101   51  118 1    
   102   51  119 1    
   103   52   53 2    
   104   52   54 am   BACKBONE|DICT|INTERRES
   105   54   55 1    
   106   54  120 1    
   107   55   56 1    
   108   55   57 1    
   109   55  121 1    
   110   56  122 1    
   111   56  123 1    
   112   56  124 1    
   113   57   58 2    
   114   57   59 am   BACKBONE|DICT|INTERRES
   115   59   60 1    
   116   59  125 1    
   117   60   61 1    
   118   60   62 1    
   119   60  126 1    
   120   61  127 1    
   121   61  128 1    
   122   61  129 1    
   123   62   63 2    
   124   62   64 am   BACKBONE|DICT|INTERRES
   125   64   65 1    
   126   64  130 1    
   127   65   66 1    
   128   65   69 1    
   129   65  131 1    
   130   66   67 am   BACKBONE|DICT|INTERRES
   131   66   68 2    
   132   67  132 1    
   133   67  133 1    
   134   69   70 1    
   135   69  134 1    
   136   69  135 1    
   137   70   71 1    
   138   71  136 1    
   139   71  137 1    
@<TRIPOS>SUBSTRUCTURE
     1 UNK         1 GROUP             0       ****    0 ROOT    
