@<TRIPOS>MOLECULE
3R137
137   139    1
SMALL
USER_CHARGES


@<TRIPOS>ATOM
      1 CA         29.5564   -2.4618   -6.7079 C.3       0 UNK        -0.2020 
      2 C          28.5213   -3.3630   -6.0569 C.2       0 UNK         0.4855 
      3 O          27.6262   -3.8701   -6.7326 O.2       0 UNK        -0.5197 
      4 N          28.6739   -3.5943   -4.7506 N.am      1 UNK        -0.4892 
      5 CA         27.8871   -4.5508   -3.9675 C.3       1 UNK         0.0835 
      6 C6         28.6636   -5.0564   -2.7169 C.3       12 UNK        -0.0855 
      7 S7         30.4241   -5.4369   -3.0365 S.3       12 UNK        -0.2931 
      8 C8         31.2758   -4.2184   -1.9780 C.3       12 UNK         0.0378 
      9 C9         30.9334   -2.7753   -2.3331 C.ar      12 UNK        -0.0802 
     10 C10        31.5174   -2.1619   -3.4460 C.ar      12 UNK        -0.0944 
     11 C11        31.2344   -0.8253   -3.7488 C.ar      12 UNK        -0.0787 
     12 C12        30.3646   -0.1035   -2.9278 C.ar      12 UNK        -0.0862 
     13 C13        29.7398   -0.7167   -1.8387 C.ar      12 UNK        -0.0733 
     14 C14        30.0419   -2.0474   -1.5371 C.ar      12 UNK        -0.0832 
     15 C15        28.7363    0.0523   -0.9891 C.3       12 UNK         0.0240 
     16 S16        27.0523   -0.0202   -1.6923 S.3       12 UNK        -0.2522 
     17 C17        27.1572    1.2006   -3.0444 C.3       12 UNK        -0.0967 
     18 CA         27.3269    0.5265   -4.4364 C.3       5 UNK         0.0660 
     19 N          26.1021   -0.1347   -4.9026 N.am      5 UNK        -0.4015 
     20 C          25.0563    0.4471   -5.5106 C.2       4 UNK         0.4946 
     21 O          24.9420    1.6626   -5.6774 O.2       4 UNK        -0.5353 
     22 CA         23.9689   -0.4855   -6.0608 C.3       4 UNK         0.0277 
     23 CB         24.5394   -1.4437   -7.1207 C.3       4 UNK        -0.1981 
     24 N          23.3058   -1.2475   -5.0072 N.am      4 UNK        -0.4209 
     25 C          22.4339   -0.7466   -4.1241 C.2       3 UNK         0.4942 
     26 O          22.0762    0.4316   -4.1107 O.2       3 UNK        -0.5208 
     27 CA         21.8458   -1.7103   -3.0753 C.3       3 UNK         0.0250 
     28 CB         20.5892   -2.4208   -3.6169 C.3       3 UNK        -0.1990 
     29 N          22.8080   -2.6669   -2.5079 N.am      3 UNK        -0.4232 
     30 C          23.4490   -3.6770   -3.1125 C.2       2 UNK         0.4993 
     31 O          23.2885   -3.9996   -4.2922 O.2       2 UNK        -0.5286 
     32 CA         24.4476   -4.4521   -2.2398 C.3       2 UNK         0.0209 
     33 CB         23.7944   -5.7303   -1.6887 C.3       2 UNK        -0.1931 
     34 N          25.6899   -4.8093   -2.9325 N.am      2 UNK        -0.4546 
     35 C          26.5237   -3.9587   -3.5508 C.2       1 UNK         0.5154 
     36 O          26.2813   -2.7615   -3.7324 O.2       1 UNK        -0.5181 
     37 C          27.9124    1.4636   -5.5209 C.2       5 UNK         0.5014 
     38 O          28.3682    0.9785   -6.5596 O.2       5 UNK        -0.5248 
     39 N          27.8562    2.7828   -5.2889 N.am      6 UNK        -0.4434 
     40 CA         28.3408    3.8334   -6.1870 C.3       6 UNK         0.0363 
     41 CB         28.3175    5.1771   -5.4404 C.3       6 UNK        -0.1936 
     42 C          27.5811    3.9459   -7.5230 C.2       6 UNK         0.5081 
     43 O          28.1019    4.5776   -8.4418 O.2       6 UNK        -0.5248 
     44 N          26.3896    3.3377   -7.6369 N.am      7 UNK        -0.4718 
     45 CA         25.6606    3.2273   -8.9061 C.3       7 UNK         0.0273 
     46 CB         24.2032    2.8182   -8.6404 C.3       7 UNK        -0.1935 
     47 C          26.3265    2.2398   -9.8822 C.2       7 UNK         0.5018 
     48 O          26.1831    2.4073  -11.0939 O.2       7 UNK        -0.5186 
     49 N          27.0413    1.2432   -9.3410 N.am      8 UNK        -0.4240 
     50 CA         27.8457    0.2867  -10.1004 C.3       8 UNK         0.0235 
     51 CB         27.6595   -1.1198   -9.5110 C.3       8 UNK        -0.2000 
     52 C          29.3246    0.7027  -10.1100 C.2       8 UNK         0.4941 
     53 O          29.9507    0.6591  -11.1687 O.2       8 UNK        -0.5273 
     54 N          29.8473    1.1130   -8.9418 N.am      9 UNK        -0.4262 
     55 CA         31.1854    1.6786   -8.7095 C.3       9 UNK         0.0264 
     56 CB         31.3250    3.0494   -9.4045 C.3       9 UNK        -0.1955 
     57 C          32.3629    0.7382   -9.0429 C.2       9 UNK         0.5031 
     58 O          33.4773    1.2163   -9.2647 O.2       9 UNK        -0.5390 
     59 N          32.1238   -0.5823   -9.0284 N.am      10 UNK        -0.4204 
     60 CA         33.1089   -1.6317   -9.3364 C.3       10 UNK         0.0237 
     61 CB         32.4028   -2.9976   -9.3407 C.3       10 UNK        -0.1985 
     62 C          34.3325   -1.6637   -8.3973 C.2       10 UNK         0.4970 
     63 O          35.3775   -2.1913   -8.7788 O.2       10 UNK        -0.4914 
     64 N          34.1765   -1.0916   -7.1996 N.am      11 UNK        -0.4285 
     65 CA         35.2259   -0.8507   -6.2040 C.3       11 UNK         0.1007 
     66 C          36.2152    0.2972   -6.5682 C.2       11 UNK         0.5703 
     67 N          35.9588    1.1096   -7.5886 N.am      11 UNK        -0.7361 
     68 O          37.2475    0.4420   -5.9175 O.2       11 UNK        -0.4986 
     69 C69        34.6109   -0.6787   -4.7870 C.3       12 UNK        -0.0947 
     70 S70        33.3953    0.6842   -4.6601 S.3       12 UNK        -0.2240 
     71 C71        31.8183   -0.1644   -4.9876 C.3       12 UNK         0.0194 
     72 H72        29.3385   -1.4167   -6.4984 H         1 UNK         0.0906 
     73 H73        30.5513   -2.6964   -6.3327 H         1 UNK         0.0906 
     74 H74        29.5676   -2.6113   -7.7864 H         1 UNK         0.0906 
     75 H75        29.4106   -3.1313   -4.2357 H         1 UNK         0.3140 
     76 H76        27.6828   -5.4129   -4.6069 H         1 UNK         0.1085 
     77 H77        28.5930   -4.3406   -1.8978 H         1 UNK         0.0836 
     78 H78        28.2015   -5.9692   -2.3371 H         1 UNK         0.0836 
     79 H79        31.0346   -4.4241   -0.9338 H         1 UNK         0.0731 
     80 H80        32.3527   -4.3656   -2.0716 H         1 UNK         0.0731 
     81 H81        32.1871   -2.7313   -4.0754 H         1 UNK         0.1312 
     82 H82        30.1508    0.9306   -3.1582 H         1 UNK         0.1406 
     83 H83        29.5766   -2.5173   -0.6812 H         1 UNK         0.1631 
     84 H84        29.0519    1.0898   -0.8702 H         1 UNK         0.0717 
     85 H85        28.7073   -0.3667    0.0179 H         1 UNK         0.0717 
     86 H86        26.2539    1.8132   -3.0220 H         1 UNK         0.0934 
     87 H87        27.9838    1.8748   -2.8161 H         1 UNK         0.0934 
     88 H88        28.0557   -0.2779   -4.3377 H         1 UNK         0.0739 
     89 H89        26.0760   -1.1377   -4.7320 H         1 UNK         0.3093 
     90 H90        23.2165    0.1383   -6.5484 H         1 UNK         0.0818 
     91 H91        23.7479   -2.0270   -7.5915 H         1 UNK         0.0819 
     92 H92        25.0458   -0.8899   -7.9120 H         1 UNK         0.0819 
     93 H93        25.2603   -2.1449   -6.6971 H         1 UNK         0.0819 
     94 H94        23.5171   -2.2403   -4.9389 H         1 UNK         0.3041 
     95 H95        21.5278   -1.0901   -2.2355 H         1 UNK         0.0784 
     96 H96        19.8389   -1.6943   -3.9318 H         1 UNK         0.0793 
     97 H97        20.8122   -3.0476   -4.4808 H         1 UNK         0.0793 
     98 H98        20.1302   -3.0507   -2.8549 H         1 UNK         0.0793 
     99 H99        23.0404   -2.4886   -1.5402 H         1 UNK         0.3024 
    100 H100       24.7322   -3.8181   -1.3970 H         1 UNK         0.1171 
    101 H101       22.8786   -5.4988   -1.1426 H         1 UNK         0.0786 
    102 H102       24.4570   -6.2517   -0.9976 H         1 UNK         0.0786 
    103 H103       23.5291   -6.4227   -2.4889 H         1 UNK         0.0786 
    104 H104       25.9617   -5.7791   -2.8657 H         1 UNK         0.2977 
    105 H105       27.4013    3.0994   -4.4453 H         1 UNK         0.3127 
    106 H106       29.3787    3.5997   -6.4341 H         1 UNK         0.0770 
    107 H107       27.3049    5.4593   -5.1494 H         1 UNK         0.0814 
    108 H108       28.7110    5.9792   -6.0667 H         1 UNK         0.0814 
    109 H109       28.9313    5.1436   -4.5401 H         1 UNK         0.0814 
    110 H110       25.9945    2.8496   -6.8363 H         1 UNK         0.2983 
    111 H111       25.6542    4.2101   -9.3829 H         1 UNK         0.0947 
    112 H112       23.6190    2.8477   -9.5612 H         1 UNK         0.0806 
    113 H113       23.7227    3.4900   -7.9289 H         1 UNK         0.0806 
    114 H114       24.1327    1.8045   -8.2469 H         1 UNK         0.0806 
    115 H115       27.1363    1.2182   -8.3332 H         1 UNK         0.3000 
    116 H116       27.5113    0.2554  -11.1399 H         1 UNK         0.0850 
    117 H117       28.3676   -1.8295   -9.9410 H         1 UNK         0.0810 
    118 H118       27.7907   -1.1249   -8.4298 H         1 UNK         0.0810 
    119 H119       26.6596   -1.4996   -9.7202 H         1 UNK         0.0810 
    120 H120       29.2565    1.0662   -8.1117 H         1 UNK         0.3040 
    121 H121       31.2473    1.8546   -7.6347 H         1 UNK         0.0766 
    122 H122       31.3287    2.9527  -10.4906 H         1 UNK         0.0812 
    123 H123       32.2543    3.5441   -9.1193 H         1 UNK         0.0812 
    124 H124       30.5110    3.7189   -9.1312 H         1 UNK         0.0812 
    125 H125       31.1756   -0.8829   -8.8626 H         1 UNK         0.3205 
    126 H126       33.4841   -1.4371  -10.3433 H         1 UNK         0.0754 
    127 H127       33.0909   -3.7899   -9.6392 H         1 UNK         0.0769 
    128 H128       31.5699   -3.0150  -10.0442 H         1 UNK         0.0769 
    129 H129       32.0190   -3.2585   -8.3541 H         1 UNK         0.0769 
    130 H130       33.2926   -0.6531   -7.0008 H         1 UNK         0.2981 
    131 H131       35.8395   -1.7529   -6.1711 H         1 UNK         0.0541 
    132 H132       35.1086    1.0201   -8.1354 H         1 UNK         0.3459 
    133 H133       36.6167    1.8398   -7.8086 H         1 UNK         0.3459 
    134 H134       35.3963   -0.5016   -4.0501 H         1 UNK         0.0612 
    135 H135       34.1389   -1.6107   -4.4792 H         1 UNK         0.0612 
    136 H136       31.1093    0.5680   -5.3771 H         1 UNK         0.0624 
    137 H137       31.9450   -0.9020   -5.7772 H         1 UNK         0.0624 
@<TRIPOS>BOND
     1    1    2 1    
     2    1   72 1    
     3    1   73 1    
     4    1   74 1    
     5    2    3 2    
     6    2    4 am   BACKBONE|DICT|INTERRES
     7    4    5 1    
     8    4   75 1    
     9    5    6 1    
    10    5   35 1    
    11    5   76 1    
    12    6    7 1    
    13    6   77 1    
    14    6   78 1    
    15    7    8 1    
    16    8    9 1    
    17    8   79 1    
    18    8   80 1    
    19    9   10 ar   
    20    9   14 ar   
    21   10   11 ar   
    22   10   81 1    
    23   11   12 ar   
    24   11   71 1    
    25   12   13 ar   
    26   12   82 1    
    27   13   14 ar   
    28   13   15 1    
    29   14   83 1    
    30   15   16 1    
    31   15   84 1    
    32   15   85 1    
    33   16   17 1    
    34   17   18 1    
    35   17   86 1    
    36   17   87 1    
    37   18   19 1    
    38   18   37 1    
    39   18   88 1    
    40   19   20 am   BACKBONE|DICT|INTERRES
    41   19   89 1    
    42   20   21 2    
    43   20   22 1    
    44   22   23 1    
    45   22   24 1    
    46   22   90 1    
    47   23   91 1    
    48   23   92 1    
    49   23   93 1    
    50   24   25 am   BACKBONE|DICT|INTERRES
    51   24   94 1    
    52   25   26 2    
    53   25   27 1    
    54   27   28 1    
    55   27   29 1    
    56   27   95 1    
    57   28   96 1    
    58   28   97 1    
    59   28   98 1    
    60   29   30 am   BACKBONE|DICT|INTERRES
    61   29   99 1    
    62   30   31 2    
    63   30   32 1    
    64   32   33 1    
    65   32   34 1    
    66   32  100 1    
    67   33  101 1    
    68   33  102 1    
    69   33  103 1    
    70   34   35 am   BACKBONE|DICT|INTERRES
    71   34  104 1    
    72   35   36 2    
    73   37   38 2    
    74   37   39 am   BACKBONE|DICT|INTERRES
    75   39   40 1    
    76   39  105 1    
    77   40   41 1    
    78   40   42 1    
    79   40  106 1    
    80   41  107 1    
    81   41  108 1    
    82   41  109 1    
    83   42   43 2    
    84   42   44 am   BACKBONE|DICT|INTERRES
    85   44   45 1    
    86   44  110 1    
    87   45   46 1    
    88   45   47 1    
    89   45  111 1    
    90   46  112 1    
    91   46  113 1    
    92   46  114 1    
    93   47   48 2    
    94   47   49 am   BACKBONE|DICT|INTERRES
    95   49   50 1    
    96   49  115 1    
    97   50   51 1    
    98   50   52 1    
    99   50  116 1    
   100   51  117 1    
   101   51  118 1    
   102   51  119 1    
   103   52   53 2    
   104   52   54 am   BACKBONE|DICT|INTERRES
   105   54   55 1    
   106   54  120 1    
   107   55   56 1    
   108   55   57 1    
   109   55  121 1    
   110   56  122 1    
   111   56  123 1    
   112   56  124 1    
   113   57   58 2    
   114   57   59 am   BACKBONE|DICT|INTERRES
   115   59   60 1    
   116   59  125 1    
   117   60   61 1    
   118   60   62 1    
   119   60  126 1    
   120   61  127 1    
   121   61  128 1    
   122   61  129 1    
   123   62   63 2    
   124   62   64 am   BACKBONE|DICT|INTERRES
   125   64   65 1    
   126   64  130 1    
   127   65   66 1    
   128   65   69 1    
   129   65  131 1    
   130   66   67 am   BACKBONE|DICT|INTERRES
   131   66   68 2    
   132   67  132 1    
   133   67  133 1    
   134   69   70 1    
   135   69  134 1    
   136   69  135 1    
   137   70   71 1    
   138   71  136 1    
   139   71  137 1    
@<TRIPOS>SUBSTRUCTURE
     1 UNK         1 GROUP             0       ****    0 ROOT    
