@<TRIPOS>MOLECULE
3R137
137   139    1
SMALL
USER_CHARGES


@<TRIPOS>ATOM
      1 CA         29.2109   -1.3303    3.4091 C.3       0 UNK        -0.2020 
      2 C          28.8639   -1.2275    1.9312 C.2       0 UNK         0.4855 
      3 O          28.4631   -0.1583    1.4694 O.2       0 UNK        -0.5197 
      4 N          29.0236   -2.3272    1.1850 N.am      1 UNK        -0.4892 
      5 CA         28.7001   -2.4270   -0.2433 C.3       1 UNK         0.0835 
      6 C6         29.3149   -3.6939   -0.8883 C.3       12 UNK        -0.0855 
      7 S7         31.1281   -3.7778   -0.6936 S.3       12 UNK        -0.2931 
      8 C8         31.5322   -5.2423   -1.6984 C.3       12 UNK         0.0378 
      9 C9         31.4593   -4.9347   -3.1862 C.ar      12 UNK        -0.0802 
     10 C10        32.5331   -4.3063   -3.8245 C.ar      12 UNK        -0.0944 
     11 C11        32.4663   -3.9935   -5.1854 C.ar      12 UNK        -0.0787 
     12 C12        31.3168   -4.3241   -5.9090 C.ar      12 UNK        -0.0862 
     13 C13        30.2267   -4.9259   -5.2756 C.ar      12 UNK        -0.0733 
     14 C14        30.3130   -5.2542   -3.9198 C.ar      12 UNK        -0.0832 
     15 C15        28.9344   -5.1579   -6.0446 C.3       12 UNK         0.0240 
     16 S16        27.5656   -4.1384   -5.3985 S.3       12 UNK        -0.2522 
     17 C17        28.2361   -2.4394   -5.4920 C.3       12 UNK        -0.0967 
     18 CA         27.6198   -1.6117   -6.6418 C.3       5 UNK         0.0660 
     19 N          26.1602   -1.5278   -6.5489 N.am      5 UNK        -0.4015 
     20 C          25.3536   -1.1003   -7.5289 C.2       4 UNK         0.4946 
     21 O          25.7502   -0.7438   -8.6371 O.2       4 UNK        -0.5353 
     22 CA         23.8538   -1.0156   -7.2029 C.3       4 UNK         0.0277 
     23 CB         23.1902   -2.3948   -7.3421 C.3       4 UNK        -0.1981 
     24 N          23.5999   -0.4749   -5.8651 N.am      4 UNK        -0.4209 
     25 C          23.9049    0.7750   -5.4860 C.2       3 UNK         0.4942 
     26 O          24.3791    1.6221   -6.2409 O.2       3 UNK        -0.5208 
     27 CA         23.6941    1.1245   -4.0034 C.3       3 UNK         0.0250 
     28 CB         22.2532    1.6008   -3.7603 C.3       3 UNK        -0.1990 
     29 N          24.0114    0.0212   -3.0892 N.am      3 UNK        -0.4232 
     30 C          25.2161   -0.5551   -2.9791 C.2       2 UNK         0.4993 
     31 O          26.1964   -0.2428   -3.6621 O.2       2 UNK        -0.5286 
     32 CA         25.3338   -1.7056   -1.9771 C.3       2 UNK         0.0209 
     33 CB         24.8197   -3.0205   -2.5936 C.3       2 UNK        -0.1931 
     34 N          26.7361   -1.8445   -1.5944 N.am      2 UNK        -0.4546 
     35 C          27.1725   -2.4074   -0.4634 C.2       1 UNK         0.5154 
     36 O          26.4250   -2.9253    0.3720 O.2       1 UNK        -0.5181 
     37 C          28.2585   -0.2110   -6.7006 C.2       5 UNK         0.5014 
     38 O          29.1978   -0.0006   -7.4693 O.2       5 UNK        -0.5248 
     39 N          27.7266    0.7324   -5.9119 N.am      6 UNK        -0.4434 
     40 CA         28.1278    2.1386   -5.9354 C.3       6 UNK         0.0363 
     41 CB         27.4781    2.8825   -4.7592 C.3       6 UNK        -0.1936 
     42 C          27.8076    2.8324   -7.2711 C.2       6 UNK         0.5081 
     43 O          28.5996    3.6595   -7.7202 O.2       6 UNK        -0.5248 
     44 N          26.6685    2.4825   -7.8817 N.am      7 UNK        -0.4718 
     45 CA         26.2235    3.0115   -9.1687 C.3       7 UNK         0.0273 
     46 CB         24.6994    2.8435   -9.2953 C.3       7 UNK        -0.1935 
     47 C          26.9484    2.3686  -10.3619 C.2       7 UNK         0.5018 
     48 O          27.5562    3.0891  -11.1542 O.2       7 UNK        -0.5186 
     49 N          26.8326    1.0403  -10.5017 N.am      8 UNK        -0.4240 
     50 CA         27.2479    0.3100  -11.7016 C.3       8 UNK         0.0235 
     51 CB         26.3988   -0.9632  -11.8571 C.3       8 UNK        -0.2000 
     52 C          28.7417   -0.0333  -11.7091 C.2       8 UNK         0.4941 
     53 O          29.4071    0.2041  -12.7179 O.2       8 UNK        -0.5273 
     54 N          29.2411   -0.5988  -10.6014 N.am      9 UNK        -0.4262 
     55 CA         30.6378   -1.0306  -10.4703 C.3       9 UNK         0.0264 
     56 CB         30.7191   -2.2276   -9.5063 C.3       9 UNK        -0.1955 
     57 C          31.5799    0.1078  -10.0364 C.2       9 UNK         0.5031 
     58 O          32.7954   -0.0481  -10.1594 O.2       9 UNK        -0.5390 
     59 N          31.0076    1.2205   -9.5501 N.am      10 UNK        -0.4204 
     60 CA         31.6719    2.4183   -9.0219 C.3       10 UNK         0.0237 
     61 CB         32.5124    3.1216  -10.1098 C.3       10 UNK        -0.1985 
     62 C          32.4605    2.1460   -7.7257 C.2       10 UNK         0.4970 
     63 O          33.4705    2.8057   -7.4741 O.2       10 UNK        -0.4914 
     64 N          31.9819    1.1886   -6.9210 N.am      11 UNK        -0.4285 
     65 CA         32.6166    0.7439   -5.6681 C.3       11 UNK         0.1007 
     66 C          32.2560    1.6058   -4.4214 C.2       11 UNK         0.5703 
     67 N          31.5573    2.7263   -4.5599 N.am      11 UNK        -0.7361 
     68 O          32.6354    1.2652   -3.3037 O.2       11 UNK        -0.4986 
     69 C69        32.3794   -0.7702   -5.4286 C.3       12 UNK        -0.0947 
     70 S70        33.1000   -1.7843   -6.7642 S.3       12 UNK        -0.2240 
     71 C71        33.6278   -3.2800   -5.8660 C.3       12 UNK         0.0194 
     72 H72        28.3337   -1.1087    4.0165 H         1 UNK         0.0906 
     73 H73        29.5661   -2.3253    3.6768 H         1 UNK         0.0906 
     74 H74        29.9911   -0.6128    3.6623 H         1 UNK         0.0906 
     75 H75        29.3507   -3.1805    1.6148 H         1 UNK         0.3140 
     76 H76        29.1243   -1.5506   -0.7393 H         1 UNK         0.1085 
     77 H77        29.0820   -3.7130   -1.9542 H         1 UNK         0.0836 
     78 H78        28.8781   -4.5985   -0.4598 H         1 UNK         0.0836 
     79 H79        32.5394   -5.5766   -1.4450 H         1 UNK         0.0731 
     80 H80        30.8644   -6.0651   -1.4376 H         1 UNK         0.0731 
     81 H81        33.4143   -4.0466   -3.2536 H         1 UNK         0.1312 
     82 H82        31.2558   -4.0677   -6.9579 H         1 UNK         0.1406 
     83 H83        29.4684   -5.7189   -3.4291 H         1 UNK         0.1631 
     84 H84        28.6576   -6.2108   -5.9772 H         1 UNK         0.0717 
     85 H85        29.0655   -4.9395   -7.1057 H         1 UNK         0.0717 
     86 H86        28.0517   -1.9603   -4.5295 H         1 UNK         0.0934 
     87 H87        29.3201   -2.4683   -5.5978 H         1 UNK         0.0934 
     88 H88        27.8609   -2.1132   -7.5816 H         1 UNK         0.0739 
     89 H89        25.7582   -1.7732   -5.6570 H         1 UNK         0.3093 
     90 H90        23.3960   -0.3409   -7.9297 H         1 UNK         0.0818 
     91 H91        22.1118   -2.3327   -7.1951 H         1 UNK         0.0819 
     92 H92        23.3558   -2.8066   -8.3388 H         1 UNK         0.0819 
     93 H93        23.5870   -3.1130   -6.6232 H         1 UNK         0.0819 
     94 H94        23.1997   -1.1007   -5.1817 H         1 UNK         0.3041 
     95 H95        24.3684    1.9495   -3.7651 H         1 UNK         0.0784 
     96 H96        22.0027    2.4347   -4.4179 H         1 UNK         0.0793 
     97 H97        21.5264    0.8091   -3.9470 H         1 UNK         0.0793 
     98 H98        22.1171    1.9479   -2.7358 H         1 UNK         0.0793 
     99 H99        23.2592   -0.3034   -2.4980 H         1 UNK         0.3024 
    100 H100       24.7440   -1.4557   -1.0918 H         1 UNK         0.1171 
    101 H101       23.7735   -2.9367   -2.8899 H         1 UNK         0.0786 
    102 H102       24.8855   -3.8452   -1.8838 H         1 UNK         0.0786 
    103 H103       25.3901   -3.2998   -3.4796 H         1 UNK         0.0786 
    104 H104       27.3813   -1.3909   -2.2296 H         1 UNK         0.2977 
    105 H105       27.0049    0.4669   -5.2456 H         1 UNK         0.3127 
    106 H106       29.2091    2.1705   -5.8023 H         1 UNK         0.0770 
    107 H107       26.3914    2.8968   -4.8426 H         1 UNK         0.0814 
    108 H108       27.8159    3.9189   -4.7205 H         1 UNK         0.0814 
    109 H109       27.7356    2.4202   -3.8060 H         1 UNK         0.0814 
    110 H110       26.0332    1.8530   -7.4015 H         1 UNK         0.2983 
    111 H111       26.4393    4.0822   -9.1930 H         1 UNK         0.0947 
    112 H112       24.3412    3.2203  -10.2543 H         1 UNK         0.0806 
    113 H113       24.1769    3.3964   -8.5144 H         1 UNK         0.0806 
    114 H114       24.3961    1.7987   -9.2188 H         1 UNK         0.0806 
    115 H115       26.3527    0.4987   -9.7825 H         1 UNK         0.3000 
    116 H116       27.0515    0.9390  -12.5732 H         1 UNK         0.0850 
    117 H117       26.6528   -1.4905  -12.7776 H         1 UNK         0.0810 
    118 H118       25.3356   -0.7268  -11.9017 H         1 UNK         0.0810 
    119 H119       26.5507   -1.6594  -11.0316 H         1 UNK         0.0810 
    120 H120       28.6401   -0.7311   -9.7992 H         1 UNK         0.3040 
    121 H121       30.9901   -1.3778  -11.4442 H         1 UNK         0.0766 
    122 H122       31.7347   -2.6236   -9.4705 H         1 UNK         0.0812 
    123 H123       30.0675   -3.0411   -9.8249 H         1 UNK         0.0812 
    124 H124       30.4466   -1.9578   -8.4873 H         1 UNK         0.0812 
    125 H125       30.0023    1.1994   -9.4436 H         1 UNK         0.3205 
    126 H126       30.8745    3.1059   -8.7448 H         1 UNK         0.0754 
    127 H127       32.8680    4.0922   -9.7618 H         1 UNK         0.0769 
    128 H128       31.9255    3.2977  -11.0114 H         1 UNK         0.0769 
    129 H129       33.3896    2.5370  -10.3882 H         1 UNK         0.0769 
    130 H130       31.1306    0.7047   -7.1860 H         1 UNK         0.2981 
    131 H131       33.6948    0.8727   -5.7797 H         1 UNK         0.0541 
    132 H132       31.2853    3.0489   -5.4733 H         1 UNK         0.3459 
    133 H133       31.3458    3.2764   -3.7428 H         1 UNK         0.3459 
    134 H134       31.3129   -0.9882   -5.3565 H         1 UNK         0.0612 
    135 H135       32.8246   -1.0860   -4.4834 H         1 UNK         0.0612 
    136 H136       34.3952   -3.0017   -5.1421 H         1 UNK         0.0624 
    137 H137       34.0989   -3.9656   -6.5712 H         1 UNK         0.0624 
@<TRIPOS>BOND
     1    1    2 1    
     2    1   72 1    
     3    1   73 1    
     4    1   74 1    
     5    2    3 2    
     6    2    4 am   BACKBONE|DICT|INTERRES
     7    4    5 1    
     8    4   75 1    
     9    5    6 1    
    10    5   35 1    
    11    5   76 1    
    12    6    7 1    
    13    6   77 1    
    14    6   78 1    
    15    7    8 1    
    16    8    9 1    
    17    8   79 1    
    18    8   80 1    
    19    9   10 ar   
    20    9   14 ar   
    21   10   11 ar   
    22   10   81 1    
    23   11   12 ar   
    24   11   71 1    
    25   12   13 ar   
    26   12   82 1    
    27   13   14 ar   
    28   13   15 1    
    29   14   83 1    
    30   15   16 1    
    31   15   84 1    
    32   15   85 1    
    33   16   17 1    
    34   17   18 1    
    35   17   86 1    
    36   17   87 1    
    37   18   19 1    
    38   18   37 1    
    39   18   88 1    
    40   19   20 am   BACKBONE|DICT|INTERRES
    41   19   89 1    
    42   20   21 2    
    43   20   22 1    
    44   22   23 1    
    45   22   24 1    
    46   22   90 1    
    47   23   91 1    
    48   23   92 1    
    49   23   93 1    
    50   24   25 am   BACKBONE|DICT|INTERRES
    51   24   94 1    
    52   25   26 2    
    53   25   27 1    
    54   27   28 1    
    55   27   29 1    
    56   27   95 1    
    57   28   96 1    
    58   28   97 1    
    59   28   98 1    
    60   29   30 am   BACKBONE|DICT|INTERRES
    61   29   99 1    
    62   30   31 2    
    63   30   32 1    
    64   32   33 1    
    65   32   34 1    
    66   32  100 1    
    67   33  101 1    
    68   33  102 1    
    69   33  103 1    
    70   34   35 am   BACKBONE|DICT|INTERRES
    71   34  104 1    
    72   35   36 2    
    73   37   38 2    
    74   37   39 am   BACKBONE|DICT|INTERRES
    75   39   40 1    
    76   39  105 1    
    77   40   41 1    
    78   40   42 1    
    79   40  106 1    
    80   41  107 1    
    81   41  108 1    
    82   41  109 1    
    83   42   43 2    
    84   42   44 am   BACKBONE|DICT|INTERRES
    85   44   45 1    
    86   44  110 1    
    87   45   46 1    
    88   45   47 1    
    89   45  111 1    
    90   46  112 1    
    91   46  113 1    
    92   46  114 1    
    93   47   48 2    
    94   47   49 am   BACKBONE|DICT|INTERRES
    95   49   50 1    
    96   49  115 1    
    97   50   51 1    
    98   50   52 1    
    99   50  116 1    
   100   51  117 1    
   101   51  118 1    
   102   51  119 1    
   103   52   53 2    
   104   52   54 am   BACKBONE|DICT|INTERRES
   105   54   55 1    
   106   54  120 1    
   107   55   56 1    
   108   55   57 1    
   109   55  121 1    
   110   56  122 1    
   111   56  123 1    
   112   56  124 1    
   113   57   58 2    
   114   57   59 am   BACKBONE|DICT|INTERRES
   115   59   60 1    
   116   59  125 1    
   117   60   61 1    
   118   60   62 1    
   119   60  126 1    
   120   61  127 1    
   121   61  128 1    
   122   61  129 1    
   123   62   63 2    
   124   62   64 am   BACKBONE|DICT|INTERRES
   125   64   65 1    
   126   64  130 1    
   127   65   66 1    
   128   65   69 1    
   129   65  131 1    
   130   66   67 am   BACKBONE|DICT|INTERRES
   131   66   68 2    
   132   67  132 1    
   133   67  133 1    
   134   69   70 1    
   135   69  134 1    
   136   69  135 1    
   137   70   71 1    
   138   71  136 1    
   139   71  137 1    
@<TRIPOS>SUBSTRUCTURE
     1 UNK         1 GROUP             0       ****    0 ROOT    
