@<TRIPOS>MOLECULE
3R137
137   139    1
SMALL
USER_CHARGES


@<TRIPOS>ATOM
      1 CA         25.1558   -6.5409    0.1862 C.3       0 UNK        -0.2020 
      2 C          26.0737   -5.4404   -0.3233 C.2       0 UNK         0.4855 
      3 O          26.4423   -4.5457    0.4373 O.2       0 UNK        -0.5197 
      4 N          26.4312   -5.4779   -1.6135 N.am      1 UNK        -0.4892 
      5 CA         27.3330   -4.5355   -2.2936 C.3       1 UNK         0.0835 
      6 C6         28.0608   -5.2586   -3.4609 C.3       12 UNK        -0.0855 
      7 S7         29.4421   -4.3566   -4.2401 S.3       12 UNK        -0.2931 
      8 C8         30.7448   -4.3180   -2.9689 C.3       12 UNK         0.0378 
      9 C9         31.3281   -2.9145   -2.8771 C.ar      12 UNK        -0.0802 
     10 C10        32.4822   -2.5669   -3.5907 C.ar      12 UNK        -0.0944 
     11 C11        32.9675   -1.2532   -3.5650 C.ar      12 UNK        -0.0787 
     12 C12        32.3061   -0.2972   -2.7876 C.ar      12 UNK        -0.0862 
     13 C13        31.1474   -0.6296   -2.0819 C.ar      12 UNK        -0.0733 
     14 C14        30.6719   -1.9427   -2.1175 C.ar      12 UNK        -0.0832 
     15 C15        30.3900    0.4425   -1.3145 C.3       12 UNK         0.0240 
     16 S16        29.5458    1.6053   -2.4364 S.3       12 UNK        -0.2522 
     17 C17        28.2607    0.5585   -3.2033 C.3       12 UNK        -0.0967 
     18 CA         28.1754    0.7329   -4.7419 C.3       5 UNK         0.0660 
     19 N          27.4810   -0.3874   -5.3816 N.am      5 UNK        -0.4015 
     20 C          27.3719   -0.5896   -6.7034 C.2       4 UNK         0.4946 
     21 O          27.9804    0.0610   -7.5566 O.2       4 UNK        -0.5353 
     22 CA         26.4035   -1.6936   -7.1594 C.3       4 UNK         0.0277 
     23 CB         27.1319   -3.0284   -7.3724 C.3       4 UNK        -0.1981 
     24 N          25.2982   -1.8843   -6.2183 N.am      4 UNK        -0.4209 
     25 C          24.2506   -1.0561   -6.1110 C.2       3 UNK         0.4942 
     26 O          24.0934   -0.0577   -6.8142 O.2       3 UNK        -0.5208 
     27 CA         23.2272   -1.3784   -5.0078 C.3       3 UNK         0.0250 
     28 CB         22.2981   -2.5233   -5.4423 C.3       3 UNK        -0.1990 
     29 N          23.8509   -1.7077   -3.7215 N.am      3 UNK        -0.4232 
     30 C          24.5771   -0.8436   -2.9995 C.2       2 UNK         0.4993 
     31 O          24.7950    0.3168   -3.3439 O.2       2 UNK        -0.5286 
     32 CA         25.1958   -1.3522   -1.6869 C.3       2 UNK         0.0209 
     33 CB         24.1495   -1.3260   -0.5612 C.3       2 UNK        -0.1931 
     34 N          25.8303   -2.6764   -1.7225 N.am      2 UNK        -0.4546 
     35 C          26.6197   -3.2075   -2.6685 C.2       1 UNK         0.5154 
     36 O          26.7899   -2.6895   -3.7726 O.2       1 UNK        -0.5181 
     37 C          27.5164    2.0741   -5.1261 C.2       5 UNK         0.5014 
     38 O          28.2002    2.9600   -5.6389 O.2       5 UNK        -0.5248 
     39 N          26.1944    2.1829   -4.9157 N.am      6 UNK        -0.4434 
     40 CA         25.3796    3.3584   -5.2419 C.3       6 UNK         0.0363 
     41 CB         23.9502    3.1554   -4.7156 C.3       6 UNK        -0.1936 
     42 C          25.3563    3.6913   -6.7427 C.2       6 UNK         0.5081 
     43 O          25.3564    4.8691   -7.1011 O.2       6 UNK        -0.5248 
     44 N          25.3717    2.6550   -7.5917 N.am      7 UNK        -0.4718 
     45 CA         25.4986    2.7764   -9.0465 C.3       7 UNK         0.0273 
     46 CB         25.0813    1.4449   -9.6927 C.3       7 UNK        -0.1935 
     47 C          26.9132    3.1703   -9.5167 C.2       7 UNK         0.5018 
     48 O          27.0678    3.5192  -10.6877 O.2       7 UNK        -0.5186 
     49 N          27.9135    3.0737   -8.6244 N.am      8 UNK        -0.4240 
     50 CA         29.3535    3.2383   -8.8665 C.3       8 UNK         0.0235 
     51 CB         29.6897    4.6977   -9.2393 C.3       8 UNK        -0.2000 
     52 C          29.9106    2.2130   -9.8754 C.2       8 UNK         0.4941 
     53 O          30.8602    2.5135  -10.6011 O.2       8 UNK        -0.5273 
     54 N          29.3006    1.0219   -9.9043 N.am      9 UNK        -0.4262 
     55 CA         29.6162   -0.0675  -10.8263 C.3       9 UNK         0.0264 
     56 CB         28.2987   -0.7094  -11.2930 C.3       9 UNK        -0.1955 
     57 C          30.5170   -1.1281  -10.1792 C.2       9 UNK         0.5031 
     58 O          31.2448   -1.8130  -10.8989 O.2       9 UNK        -0.5390 
     59 N          30.4394   -1.2614   -8.8473 N.am      10 UNK        -0.4204 
     60 CA         31.1081   -2.3006   -8.0614 C.3       10 UNK         0.0237 
     61 CB         30.7129   -2.1449   -6.5880 C.3       10 UNK        -0.1985 
     62 C          32.6400   -2.3077   -8.1582 C.2       10 UNK         0.4970 
     63 O          33.2388   -3.3802   -8.2492 O.2       10 UNK        -0.4914 
     64 N          33.2367   -1.1157   -8.0710 N.am      11 UNK        -0.4285 
     65 CA         34.6759   -0.9287   -7.8331 C.3       11 UNK         0.1007 
     66 C          35.5457   -0.9092   -9.1226 C.2       11 UNK         0.5703 
     67 N          34.9742   -1.0546  -10.3125 N.am      11 UNK        -0.7361 
     68 O          36.7641   -0.7716   -9.0415 O.2       11 UNK        -0.4986 
     69 C69        34.9605    0.2945   -6.9129 C.3       12 UNK        -0.0947 
     70 S70        33.7621    0.5099   -5.5477 S.3       12 UNK        -0.2240 
     71 C71        34.1762   -0.8529   -4.4065 C.3       12 UNK         0.0194 
     72 H72        24.2272   -6.1114    0.5612 H         1 UNK         0.0906 
     73 H73        24.9068   -7.2594   -0.5944 H         1 UNK         0.0906 
     74 H74        25.6356   -7.0803    1.0025 H         1 UNK         0.0906 
     75 H75        26.0612   -6.2154   -2.1974 H         1 UNK         0.3140 
     76 H76        28.0991   -4.2477   -1.5719 H         1 UNK         0.1085 
     77 H77        27.3443   -5.5061   -4.2461 H         1 UNK         0.0836 
     78 H78        28.4591   -6.2133   -3.1127 H         1 UNK         0.0836 
     79 H79        31.5204   -5.0399   -3.2291 H         1 UNK         0.0731 
     80 H80        30.3541   -4.6256   -1.9987 H         1 UNK         0.0731 
     81 H81        32.9783   -3.3116   -4.1980 H         1 UNK         0.1312 
     82 H82        32.6662    0.7226   -2.7707 H         1 UNK         0.1406 
     83 H83        29.7688   -2.2025   -1.5830 H         1 UNK         0.1631 
     84 H84        31.0898    0.9995   -0.6899 H         1 UNK         0.0717 
     85 H85        29.6591   -0.0006   -0.6361 H         1 UNK         0.0717 
     86 H86        28.4672   -0.4853   -2.9681 H         1 UNK         0.0934 
     87 H87        27.3098    0.7856   -2.7222 H         1 UNK         0.0934 
     88 H88        29.1920    0.7333   -5.1420 H         1 UNK         0.0739 
     89 H89        27.0251   -1.0541   -4.7648 H         1 UNK         0.3093 
     90 H90        25.9874   -1.3857   -8.1206 H         1 UNK         0.0818 
     91 H91        26.4591   -3.7840   -7.7777 H         1 UNK         0.0819 
     92 H92        27.9540   -2.9183   -8.0806 H         1 UNK         0.0819 
     93 H93        27.5443   -3.4169   -6.4407 H         1 UNK         0.0819 
     94 H94        25.4047   -2.6250   -5.5367 H         1 UNK         0.3041 
     95 H95        22.6162   -0.4850   -4.8602 H         1 UNK         0.0784 
     96 H96        21.8140   -2.2925   -6.3924 H         1 UNK         0.0793 
     97 H97        22.8404   -3.4607   -5.5720 H         1 UNK         0.0793 
     98 H98        21.5074   -2.6911   -4.7108 H         1 UNK         0.0793 
     99 H99        23.7342   -2.6483   -3.3737 H         1 UNK         0.3024 
    100 H100       25.9822   -0.6460   -1.4173 H         1 UNK         0.1171 
    101 H101       24.6039   -1.5322    0.4082 H         1 UNK         0.0786 
    102 H102       23.6726   -0.3470   -0.4905 H         1 UNK         0.0786 
    103 H103       23.3618   -2.0625   -0.7248 H         1 UNK         0.0786 
    104 H104       25.7914   -3.2014   -0.8539 H         1 UNK         0.2977 
    105 H105       25.7039    1.4166   -4.4543 H         1 UNK         0.3127 
    106 H106       25.8171    4.2140   -4.7232 H         1 UNK         0.0770 
    107 H107       23.4763    2.2822   -5.1664 H         1 UNK         0.0814 
    108 H108       23.3237    4.0203   -4.9375 H         1 UNK         0.0814 
    109 H109       23.9420    3.0180   -3.6342 H         1 UNK         0.0814 
    110 H110       25.2894    1.7169   -7.2151 H         1 UNK         0.2983 
    111 H111       24.8131    3.5550   -9.3883 H         1 UNK         0.0947 
    112 H112       25.7497    0.6333   -9.4052 H         1 UNK         0.0806 
    113 H113       25.1029    1.5134  -10.7812 H         1 UNK         0.0806 
    114 H114       24.0679    1.1631   -9.4062 H         1 UNK         0.0806 
    115 H115       27.6758    2.7977   -7.6778 H         1 UNK         0.3000 
    116 H116       29.8440    3.0197   -7.9168 H         1 UNK         0.0850 
    117 H117       30.7686    4.8532   -9.2759 H         1 UNK         0.0810 
    118 H118       29.2876    5.3959   -8.5052 H         1 UNK         0.0810 
    119 H119       29.2897    4.9694  -10.2166 H         1 UNK         0.0810 
    120 H120       28.5780    0.8410   -9.2116 H         1 UNK         0.3040 
    121 H121       30.1358    0.3238  -11.7037 H         1 UNK         0.0766 
    122 H122       28.4869   -1.5176  -12.0011 H         1 UNK         0.0812 
    123 H123       27.6608    0.0189  -11.7945 H         1 UNK         0.0812 
    124 H124       27.7346   -1.1294  -10.4589 H         1 UNK         0.0812 
    125 H125       29.7877   -0.6658   -8.3489 H         1 UNK         0.3205 
    126 H126       30.7484   -3.2683   -8.4169 H         1 UNK         0.0754 
    127 H127       31.2216   -2.8942   -5.9839 H         1 UNK         0.0769 
    128 H128       29.6481   -2.2896   -6.4332 H         1 UNK         0.0769 
    129 H129       30.9803   -1.1665   -6.1859 H         1 UNK         0.0769 
    130 H130       32.6658   -0.2865   -8.0089 H         1 UNK         0.2981 
    131 H131       35.0284   -1.8042   -7.2852 H         1 UNK         0.0541 
    132 H132       35.5468   -1.0457  -11.1417 H         1 UNK         0.3459 
    133 H133       33.9775   -1.1918  -10.3849 H         1 UNK         0.3459 
    134 H134       35.9648    0.2290   -6.4905 H         1 UNK         0.0612 
    135 H135       34.9379    1.2156   -7.4982 H         1 UNK         0.0612 
    136 H136       34.5379   -1.7090   -4.9765 H         1 UNK         0.0624 
    137 H137       34.9924   -0.5421   -3.7534 H         1 UNK         0.0624 
@<TRIPOS>BOND
     1    1    2 1    
     2    1   72 1    
     3    1   73 1    
     4    1   74 1    
     5    2    3 2    
     6    2    4 am   BACKBONE|DICT|INTERRES
     7    4    5 1    
     8    4   75 1    
     9    5    6 1    
    10    5   35 1    
    11    5   76 1    
    12    6    7 1    
    13    6   77 1    
    14    6   78 1    
    15    7    8 1    
    16    8    9 1    
    17    8   79 1    
    18    8   80 1    
    19    9   10 ar   
    20    9   14 ar   
    21   10   11 ar   
    22   10   81 1    
    23   11   12 ar   
    24   11   71 1    
    25   12   13 ar   
    26   12   82 1    
    27   13   14 ar   
    28   13   15 1    
    29   14   83 1    
    30   15   16 1    
    31   15   84 1    
    32   15   85 1    
    33   16   17 1    
    34   17   18 1    
    35   17   86 1    
    36   17   87 1    
    37   18   19 1    
    38   18   37 1    
    39   18   88 1    
    40   19   20 am   BACKBONE|DICT|INTERRES
    41   19   89 1    
    42   20   21 2    
    43   20   22 1    
    44   22   23 1    
    45   22   24 1    
    46   22   90 1    
    47   23   91 1    
    48   23   92 1    
    49   23   93 1    
    50   24   25 am   BACKBONE|DICT|INTERRES
    51   24   94 1    
    52   25   26 2    
    53   25   27 1    
    54   27   28 1    
    55   27   29 1    
    56   27   95 1    
    57   28   96 1    
    58   28   97 1    
    59   28   98 1    
    60   29   30 am   BACKBONE|DICT|INTERRES
    61   29   99 1    
    62   30   31 2    
    63   30   32 1    
    64   32   33 1    
    65   32   34 1    
    66   32  100 1    
    67   33  101 1    
    68   33  102 1    
    69   33  103 1    
    70   34   35 am   BACKBONE|DICT|INTERRES
    71   34  104 1    
    72   35   36 2    
    73   37   38 2    
    74   37   39 am   BACKBONE|DICT|INTERRES
    75   39   40 1    
    76   39  105 1    
    77   40   41 1    
    78   40   42 1    
    79   40  106 1    
    80   41  107 1    
    81   41  108 1    
    82   41  109 1    
    83   42   43 2    
    84   42   44 am   BACKBONE|DICT|INTERRES
    85   44   45 1    
    86   44  110 1    
    87   45   46 1    
    88   45   47 1    
    89   45  111 1    
    90   46  112 1    
    91   46  113 1    
    92   46  114 1    
    93   47   48 2    
    94   47   49 am   BACKBONE|DICT|INTERRES
    95   49   50 1    
    96   49  115 1    
    97   50   51 1    
    98   50   52 1    
    99   50  116 1    
   100   51  117 1    
   101   51  118 1    
   102   51  119 1    
   103   52   53 2    
   104   52   54 am   BACKBONE|DICT|INTERRES
   105   54   55 1    
   106   54  120 1    
   107   55   56 1    
   108   55   57 1    
   109   55  121 1    
   110   56  122 1    
   111   56  123 1    
   112   56  124 1    
   113   57   58 2    
   114   57   59 am   BACKBONE|DICT|INTERRES
   115   59   60 1    
   116   59  125 1    
   117   60   61 1    
   118   60   62 1    
   119   60  126 1    
   120   61  127 1    
   121   61  128 1    
   122   61  129 1    
   123   62   63 2    
   124   62   64 am   BACKBONE|DICT|INTERRES
   125   64   65 1    
   126   64  130 1    
   127   65   66 1    
   128   65   69 1    
   129   65  131 1    
   130   66   67 am   BACKBONE|DICT|INTERRES
   131   66   68 2    
   132   67  132 1    
   133   67  133 1    
   134   69   70 1    
   135   69  134 1    
   136   69  135 1    
   137   70   71 1    
   138   71  136 1    
   139   71  137 1    
@<TRIPOS>SUBSTRUCTURE
     1 UNK         1 GROUP             0       ****    0 ROOT    
