@<TRIPOS>MOLECULE
3R137
137   139    1
SMALL
USER_CHARGES


@<TRIPOS>ATOM
      1 CA         24.3055   -7.1547   -0.3843 C.3       0 UNK        -0.2020 
      2 C          25.0844   -5.9618    0.1493 C.2       0 UNK         0.4855 
      3 O          24.8111   -5.4985    1.2567 O.2       0 UNK        -0.5197 
      4 N          26.0532   -5.4609   -0.6296 N.am      1 UNK        -0.4892 
      5 CA         26.8897   -4.3013   -0.2841 C.3       1 UNK         0.0835 
      6 C6         28.1736   -4.2626   -1.1529 C.3       12 UNK        -0.0855 
      7 S7         29.6150   -3.5964   -0.2535 S.3       12 UNK        -0.2931 
      8 C8         30.9914   -4.1972   -1.2866 C.3       12 UNK         0.0378 
      9 C9         30.9768   -3.5407   -2.6585 C.ar      12 UNK        -0.0802 
     10 C10        31.5741   -2.2896   -2.8458 C.ar      12 UNK        -0.0944 
     11 C11        31.5183   -1.6523   -4.0891 C.ar      12 UNK        -0.0787 
     12 C12        30.8355   -2.2769   -5.1386 C.ar      12 UNK        -0.0862 
     13 C13        30.2548   -3.5362   -4.9740 C.ar      12 UNK        -0.0733 
     14 C14        30.3434   -4.1720   -3.7336 C.ar      12 UNK        -0.0832 
     15 C15        29.5374   -4.2001   -6.1432 C.3       12 UNK         0.0240 
     16 S16        27.7913   -4.6044   -5.7999 S.3       12 UNK        -0.2522 
     17 C17        27.0976   -3.0331   -5.1865 C.3       12 UNK        -0.0967 
     18 CA         26.6999   -2.0399   -6.3128 C.3       5 UNK         0.0660 
     19 N          25.4549   -1.3342   -5.9999 N.am      5 UNK        -0.4015 
     20 C          24.7505   -0.6013   -6.8761 C.2       4 UNK         0.4946 
     21 O          25.0447   -0.4927   -8.0658 O.2       4 UNK        -0.5353 
     22 CA         23.5383    0.1789   -6.3326 C.3       4 UNK         0.0277 
     23 CB         22.2618   -0.6700   -6.4404 C.3       4 UNK        -0.1981 
     24 N          23.7101    0.6277   -4.9483 N.am      4 UNK        -0.4209 
     25 C          24.6639    1.4740   -4.5325 C.2       3 UNK         0.4942 
     26 O          25.4435    2.0440   -5.2935 O.2       3 UNK        -0.5208 
     27 CA         24.8190    1.6733   -3.0132 C.3       3 UNK         0.0250 
     28 CB         24.0792    2.9423   -2.5617 C.3       3 UNK        -0.1990 
     29 N          24.3724    0.5316   -2.2028 N.am      3 UNK        -0.4232 
     30 C          24.8572   -0.7157   -2.2898 C.2       2 UNK         0.4993 
     31 O          25.7247   -1.0581   -3.0980 O.2       2 UNK        -0.5286 
     32 CA         24.1901   -1.7657   -1.3881 C.3       2 UNK         0.0209 
     33 CB         22.8703   -2.2430   -2.0184 C.3       2 UNK        -0.1931 
     34 N          25.0501   -2.9298   -1.1753 N.am      2 UNK        -0.4546 
     35 C          26.1100   -2.9663   -0.3551 C.2       1 UNK         0.5154 
     36 O          26.4571   -2.0148    0.3471 O.2       1 UNK        -0.5181 
     37 C          27.8265   -1.0293   -6.5999 C.2       5 UNK         0.5014 
     38 O          28.5214   -1.1548   -7.6085 O.2       5 UNK        -0.5248 
     39 N          27.9521   -0.0204   -5.7246 N.am      6 UNK        -0.4434 
     40 CA         28.9216    1.0712   -5.8379 C.3       6 UNK         0.0363 
     41 CB         28.9304    1.8816   -4.5316 C.3       6 UNK        -0.1936 
     42 C          28.6753    1.9910   -7.0456 C.2       6 UNK         0.5081 
     43 O          29.6320    2.5572   -7.5704 O.2       6 UNK        -0.5248 
     44 N          27.4098    2.1283   -7.4622 N.am      7 UNK        -0.4718 
     45 CA         27.0133    2.8366   -8.6787 C.3       7 UNK         0.0273 
     46 CB         25.5146    3.1710   -8.6093 C.3       7 UNK        -0.1935 
     47 C          27.3328    2.0375   -9.9545 C.2       7 UNK         0.5018 
     48 O          27.7176    2.6403  -10.9573 O.2       7 UNK        -0.5186 
     49 N          27.1467    0.7101   -9.9061 N.am      8 UNK        -0.4240 
     50 CA         27.3980   -0.2031  -11.0224 C.3       8 UNK         0.0235 
     51 CB         26.6763   -1.5377  -10.7716 C.3       8 UNK        -0.2000 
     52 C          28.8953   -0.4353  -11.2794 C.2       8 UNK         0.4941 
     53 O          29.3261   -0.3721  -12.4324 O.2       8 UNK        -0.5273 
     54 N          29.6535   -0.7231  -10.2144 N.am      9 UNK        -0.4262 
     55 CA         31.0962   -0.9659  -10.2656 C.3       9 UNK         0.0264 
     56 CB         31.4963   -1.7893   -9.0332 C.3       9 UNK        -0.1955 
     57 C          31.8968    0.3455  -10.3100 C.2       9 UNK         0.5031 
     58 O          31.3774    1.4106   -9.9728 O.2       9 UNK        -0.5390 
     59 N          33.1818    0.2421  -10.6697 N.am      10 UNK        -0.4204 
     60 CA         34.1374    1.3542  -10.7115 C.3       10 UNK         0.0237 
     61 CB         35.2475    1.0161  -11.7257 C.3       10 UNK        -0.1985 
     62 C          34.6947    1.7114   -9.3152 C.2       10 UNK         0.4970 
     63 O          35.9119    1.8155   -9.1507 O.2       10 UNK        -0.4914 
     64 N          33.8029    1.8875   -8.3323 N.am      11 UNK        -0.4285 
     65 CA         34.1398    2.2796   -6.9519 C.3       11 UNK         0.1007 
     66 C          34.4239    3.8002   -6.7749 C.2       11 UNK         0.5703 
     67 N          34.1669    4.6500   -7.7630 N.am      11 UNK        -0.7361 
     68 O          34.9013    4.2163   -5.7218 O.2       11 UNK        -0.4986 
     69 C69        33.0768    1.7883   -5.9342 C.3       12 UNK        -0.0947 
     70 S70        32.9305   -0.0273   -5.8983 S.3       12 UNK        -0.2240 
     71 C71        32.1528   -0.2737   -4.2651 C.3       12 UNK         0.0194 
     72 H72        23.2479   -6.9055   -0.4663 H         1 UNK         0.0906 
     73 H73        24.6575   -7.4670   -1.3674 H         1 UNK         0.0906 
     74 H74        24.4043   -8.0010    0.2950 H         1 UNK         0.0906 
     75 H75        26.2382   -5.8897   -1.5259 H         1 UNK         0.3140 
     76 H76        27.1850   -4.4321    0.7599 H         1 UNK         0.1085 
     77 H77        28.0210   -3.6948   -2.0734 H         1 UNK         0.0836 
     78 H78        28.4395   -5.2729   -1.4683 H         1 UNK         0.0836 
     79 H79        31.9344   -3.9790   -0.7829 H         1 UNK         0.0731 
     80 H80        30.9391   -5.2835   -1.3767 H         1 UNK         0.0731 
     81 H81        32.0660   -1.8040   -2.0138 H         1 UNK         0.1312 
     82 H82        30.7515   -1.7788   -6.0912 H         1 UNK         0.1406 
     83 H83        29.8871   -5.1433   -3.5991 H         1 UNK         0.1631 
     84 H84        30.0637   -5.1199   -6.4009 H         1 UNK         0.0717 
     85 H85        29.5787   -3.5713   -7.0330 H         1 UNK         0.0717 
     86 H86        26.2106   -3.3199   -4.6191 H         1 UNK         0.0934 
     87 H87        27.7600   -2.5835   -4.4439 H         1 UNK         0.0934 
     88 H88        26.5190   -2.6016   -7.2320 H         1 UNK         0.0739 
     89 H89        25.1991   -1.3103   -5.0184 H         1 UNK         0.3093 
     90 H90        23.4133    1.0669   -6.9556 H         1 UNK         0.0818 
     91 H91        21.3803   -0.1019   -6.1425 H         1 UNK         0.0819 
     92 H92        22.0996   -0.9997   -7.4677 H         1 UNK         0.0819 
     93 H93        22.3142   -1.5630   -5.8162 H         1 UNK         0.0819 
     94 H94        23.1008    0.2187   -4.2556 H         1 UNK         0.3041 
     95 H95        25.8844    1.8116   -2.8173 H         1 UNK         0.0784 
     96 H96        24.4114    3.8111   -3.1322 H         1 UNK         0.0793 
     97 H97        23.0011    2.8537   -2.7014 H         1 UNK         0.0793 
     98 H98        24.2664    3.1590   -1.5097 H         1 UNK         0.0793 
     99 H99        23.6454    0.7223   -1.5276 H         1 UNK         0.3024 
    100 H100       23.9790   -1.3092   -0.4181 H         1 UNK         0.1171 
    101 H101       22.1713   -1.4158   -2.1491 H         1 UNK         0.0786 
    102 H102       22.3751   -2.9816   -1.3875 H         1 UNK         0.0786 
    103 H103       23.0294   -2.6940   -2.9991 H         1 UNK         0.0786 
    104 H104       24.8479   -3.7524   -1.7232 H         1 UNK         0.2977 
    105 H105       27.3218    0.0124   -4.9351 H         1 UNK         0.3127 
    106 H106       29.9054    0.6210   -5.9766 H         1 UNK         0.0770 
    107 H107       27.9833    2.3971   -4.3701 H         1 UNK         0.0814 
    108 H108       29.7134    2.6408   -4.5533 H         1 UNK         0.0814 
    109 H109       29.1172    1.2456   -3.6663 H         1 UNK         0.0814 
    110 H110       26.6693    1.7332   -6.8922 H         1 UNK         0.2983 
    111 H111       27.5696    3.7755   -8.7262 H         1 UNK         0.0947 
    112 H112       25.2037    3.7476   -9.4814 H         1 UNK         0.0806 
    113 H113       25.2810    3.7654   -7.7257 H         1 UNK         0.0806 
    114 H114       24.9010    2.2704   -8.5784 H         1 UNK         0.0806 
    115 H115       26.7768    0.2998   -9.0560 H         1 UNK         0.3000 
    116 H116       26.9733    0.2416  -11.9252 H         1 UNK         0.0850 
    117 H117       26.8484   -2.2364  -11.5914 H         1 UNK         0.0810 
    118 H118       25.5987   -1.3943  -10.6886 H         1 UNK         0.0810 
    119 H119       27.0190   -2.0177   -9.8540 H         1 UNK         0.0810 
    120 H120       29.2206   -0.7475   -9.2928 H         1 UNK         0.3040 
    121 H121       31.3255   -1.5444  -11.1631 H         1 UNK         0.0766 
    122 H122       32.5519   -2.0619   -9.0560 H         1 UNK         0.0812 
    123 H123       30.9225   -2.7135   -8.9661 H         1 UNK         0.0812 
    124 H124       31.3267   -1.2190   -8.1218 H         1 UNK         0.0812 
    125 H125       33.5508   -0.6725  -10.8890 H         1 UNK         0.3205 
    126 H126       33.6211    2.2437  -11.0792 H         1 UNK         0.0754 
    127 H127       35.9455    1.8474  -11.8355 H         1 UNK         0.0769 
    128 H128       34.8339    0.8140  -12.7141 H         1 UNK         0.0769 
    129 H129       35.8246    0.1431  -11.4178 H         1 UNK         0.0769 
    130 H130       32.8168    1.8034   -8.5566 H         1 UNK         0.2981 
    131 H131       35.0770    1.7842   -6.6908 H         1 UNK         0.0541 
    132 H132       33.7687    4.3230   -8.6282 H         1 UNK         0.3459 
    133 H133       34.3626    5.6302   -7.6343 H         1 UNK         0.3459 
    134 H134       32.0983    2.2134   -6.1647 H         1 UNK         0.0612 
    135 H135       33.3301    2.1222   -4.9261 H         1 UNK         0.0612 
    136 H136       31.3862    0.4833   -4.1084 H         1 UNK         0.0624 
    137 H137       32.9126   -0.1058   -3.5003 H         1 UNK         0.0624 
@<TRIPOS>BOND
     1    1    2 1    
     2    1   72 1    
     3    1   73 1    
     4    1   74 1    
     5    2    3 2    
     6    2    4 am   BACKBONE|DICT|INTERRES
     7    4    5 1    
     8    4   75 1    
     9    5    6 1    
    10    5   35 1    
    11    5   76 1    
    12    6    7 1    
    13    6   77 1    
    14    6   78 1    
    15    7    8 1    
    16    8    9 1    
    17    8   79 1    
    18    8   80 1    
    19    9   10 ar   
    20    9   14 ar   
    21   10   11 ar   
    22   10   81 1    
    23   11   12 ar   
    24   11   71 1    
    25   12   13 ar   
    26   12   82 1    
    27   13   14 ar   
    28   13   15 1    
    29   14   83 1    
    30   15   16 1    
    31   15   84 1    
    32   15   85 1    
    33   16   17 1    
    34   17   18 1    
    35   17   86 1    
    36   17   87 1    
    37   18   19 1    
    38   18   37 1    
    39   18   88 1    
    40   19   20 am   BACKBONE|DICT|INTERRES
    41   19   89 1    
    42   20   21 2    
    43   20   22 1    
    44   22   23 1    
    45   22   24 1    
    46   22   90 1    
    47   23   91 1    
    48   23   92 1    
    49   23   93 1    
    50   24   25 am   BACKBONE|DICT|INTERRES
    51   24   94 1    
    52   25   26 2    
    53   25   27 1    
    54   27   28 1    
    55   27   29 1    
    56   27   95 1    
    57   28   96 1    
    58   28   97 1    
    59   28   98 1    
    60   29   30 am   BACKBONE|DICT|INTERRES
    61   29   99 1    
    62   30   31 2    
    63   30   32 1    
    64   32   33 1    
    65   32   34 1    
    66   32  100 1    
    67   33  101 1    
    68   33  102 1    
    69   33  103 1    
    70   34   35 am   BACKBONE|DICT|INTERRES
    71   34  104 1    
    72   35   36 2    
    73   37   38 2    
    74   37   39 am   BACKBONE|DICT|INTERRES
    75   39   40 1    
    76   39  105 1    
    77   40   41 1    
    78   40   42 1    
    79   40  106 1    
    80   41  107 1    
    81   41  108 1    
    82   41  109 1    
    83   42   43 2    
    84   42   44 am   BACKBONE|DICT|INTERRES
    85   44   45 1    
    86   44  110 1    
    87   45   46 1    
    88   45   47 1    
    89   45  111 1    
    90   46  112 1    
    91   46  113 1    
    92   46  114 1    
    93   47   48 2    
    94   47   49 am   BACKBONE|DICT|INTERRES
    95   49   50 1    
    96   49  115 1    
    97   50   51 1    
    98   50   52 1    
    99   50  116 1    
   100   51  117 1    
   101   51  118 1    
   102   51  119 1    
   103   52   53 2    
   104   52   54 am   BACKBONE|DICT|INTERRES
   105   54   55 1    
   106   54  120 1    
   107   55   56 1    
   108   55   57 1    
   109   55  121 1    
   110   56  122 1    
   111   56  123 1    
   112   56  124 1    
   113   57   58 2    
   114   57   59 am   BACKBONE|DICT|INTERRES
   115   59   60 1    
   116   59  125 1    
   117   60   61 1    
   118   60   62 1    
   119   60  126 1    
   120   61  127 1    
   121   61  128 1    
   122   61  129 1    
   123   62   63 2    
   124   62   64 am   BACKBONE|DICT|INTERRES
   125   64   65 1    
   126   64  130 1    
   127   65   66 1    
   128   65   69 1    
   129   65  131 1    
   130   66   67 am   BACKBONE|DICT|INTERRES
   131   66   68 2    
   132   67  132 1    
   133   67  133 1    
   134   69   70 1    
   135   69  134 1    
   136   69  135 1    
   137   70   71 1    
   138   71  136 1    
   139   71  137 1    
@<TRIPOS>SUBSTRUCTURE
     1 UNK         1 GROUP             0       ****    0 ROOT    
