@<TRIPOS>MOLECULE
3R137
137   139    1
SMALL
USER_CHARGES


@<TRIPOS>ATOM
      1 CA         28.8942    2.1750   -2.7573 C.3       0 UNK        -0.2020 
      2 C          28.2280    0.8450   -3.0756 C.2       0 UNK         0.4855 
      3 O          27.1338    0.8330   -3.6389 O.2       0 UNK        -0.5197 
      4 N          28.8682   -0.2680   -2.6833 N.am      1 UNK        -0.4892 
      5 CA         28.3903   -1.6566   -2.8033 C.3       1 UNK         0.0835 
      6 C6         29.4032   -2.6311   -2.1356 C.3       12 UNK        -0.0855 
      7 S7         28.8865   -4.3849   -2.0413 S.3       12 UNK        -0.2931 
      8 C8         30.3069   -5.2599   -2.7755 C.3       12 UNK         0.0378 
      9 C9         30.4096   -5.0309   -4.2760 C.ar      12 UNK        -0.0802 
     10 C10        31.5460   -4.4325   -4.8270 C.ar      12 UNK        -0.0944 
     11 C11        31.6347   -4.2125   -6.2051 C.ar      12 UNK        -0.0787 
     12 C12        30.5709   -4.5846   -7.0330 C.ar      12 UNK        -0.0862 
     13 C13        29.4330   -5.1930   -6.4933 C.ar      12 UNK        -0.0733 
     14 C14        29.3676   -5.4288   -5.1172 C.ar      12 UNK        -0.0832 
     15 C15        28.2658   -5.5814   -7.3919 C.3       12 UNK         0.0240 
     16 S16        26.7066   -4.7909   -6.8741 S.3       12 UNK        -0.2522 
     17 C17        27.2003   -3.0360   -6.8590 C.3       12 UNK        -0.0967 
     18 CA         25.9882   -2.0841   -6.9883 C.3       5 UNK         0.0660 
     19 N          25.0450   -2.2277   -5.8771 N.am      5 UNK        -0.4015 
     20 C          23.7161   -2.3328   -6.0093 C.2       4 UNK         0.4946 
     21 O          23.1282   -2.3498   -7.0910 O.2       4 UNK        -0.5353 
     22 CA         22.9041   -2.3553   -4.7095 C.3       4 UNK         0.0277 
     23 CB         22.9940   -3.7287   -4.0237 C.3       4 UNK        -0.1981 
     24 N          23.3837   -1.3170   -3.8005 N.am      4 UNK        -0.4209 
     25 C          23.0367   -0.0228   -3.8595 C.2       3 UNK         0.4942 
     26 O          22.2019    0.4155   -4.6518 O.2       3 UNK        -0.5208 
     27 CA         23.7578    0.9609   -2.9124 C.3       3 UNK         0.0250 
     28 CB         22.7786    1.9258   -2.2115 C.3       3 UNK        -0.1990 
     29 N          24.6608    0.3092   -1.9544 N.am      3 UNK        -0.4232 
     30 C          24.3380   -0.5152   -0.9437 C.2       2 UNK         0.4993 
     31 O          23.1814   -0.7242   -0.5764 O.2       2 UNK        -0.5286 
     32 CA         25.4930   -1.2754   -0.2569 C.3       2 UNK         0.0209 
     33 CB         25.0817   -2.7106    0.1373 C.3       2 UNK        -0.1931 
     34 N          26.7474   -1.3063   -1.0251 N.am      2 UNK        -0.4546 
     35 C          26.9552   -1.8175   -2.2513 C.2       1 UNK         0.5154 
     36 O          26.0724   -2.3068   -2.9623 O.2       1 UNK        -0.5181 
     37 C          26.4102   -0.6081   -7.1147 C.2       5 UNK         0.5014 
     38 O          27.5990   -0.3132   -7.2538 O.2       5 UNK        -0.5248 
     39 N          25.4273    0.3047   -7.1029 N.am      6 UNK        -0.4434 
     40 CA         25.6208    1.7540   -7.2381 C.3       6 UNK         0.0363 
     41 CB         24.2834    2.4684   -6.9875 C.3       6 UNK        -0.1936 
     42 C          26.2199    2.1871   -8.5915 C.2       6 UNK         0.5081 
     43 O          26.7776    3.2798   -8.6796 O.2       6 UNK        -0.5248 
     44 N          26.1152    1.3261   -9.6143 N.am      7 UNK        -0.4718 
     45 CA         26.7806    1.4886  -10.9090 C.3       7 UNK         0.0273 
     46 CB         26.1462    0.5282  -11.9280 C.3       7 UNK        -0.1935 
     47 C          28.3037    1.2661  -10.8345 C.2       7 UNK         0.5018 
     48 O          29.0316    1.8619  -11.6294 O.2       7 UNK        -0.5186 
     49 N          28.7568    0.4230   -9.8943 N.am      8 UNK        -0.4240 
     50 CA         30.1731    0.1904   -9.6053 C.3       8 UNK         0.0235 
     51 CB         30.3834   -1.2610   -9.1408 C.3       8 UNK        -0.2000 
     52 C          30.6718    1.1840   -8.5472 C.2       8 UNK         0.4941 
     53 O          31.7447    1.7630   -8.7240 O.2       8 UNK        -0.5273 
     54 N          29.8709    1.3793   -7.4878 N.am      9 UNK        -0.4262 
     55 CA         30.0687    2.3042   -6.3690 C.3       9 UNK         0.0264 
     56 CB         29.8560    3.7656   -6.8222 C.3       9 UNK        -0.1955 
     57 C          31.4076    2.0742   -5.6447 C.2       9 UNK         0.5031 
     58 O          31.4948    1.1733   -4.8107 O.2       9 UNK        -0.5390 
     59 N          32.4189    2.8887   -5.9751 N.am      10 UNK        -0.4204 
     60 CA         33.7915    2.7735   -5.4779 C.3       10 UNK         0.0237 
     61 CB         34.5288    4.0983   -5.7356 C.3       10 UNK        -0.1985 
     62 C          34.5706    1.5937   -6.0913 C.2       10 UNK         0.4970 
     63 O          35.5935    1.2065   -5.5250 O.2       10 UNK        -0.4914 
     64 N          34.0908    1.0569   -7.2233 N.am      11 UNK        -0.4285 
     65 CA         34.6407   -0.1035   -7.9464 C.3       11 UNK         0.1007 
     66 C          36.0111    0.1550   -8.6443 C.2       11 UNK         0.5703 
     67 N          36.4404    1.3995   -8.8197 N.am      11 UNK        -0.7361 
     68 O          36.6845   -0.7822   -9.0671 O.2       11 UNK        -0.4986 
     69 C69        34.6324   -1.4107   -7.1002 C.3       12 UNK        -0.0947 
     70 S70        32.9832   -1.8130   -6.4285 S.3       12 UNK        -0.2240 
     71 C71        32.8896   -3.5891   -6.7950 C.3       12 UNK         0.0194 
     72 H72        28.5102    2.5679   -1.8164 H         1 UNK         0.0906 
     73 H73        29.9758    2.0732   -2.6707 H         1 UNK         0.0906 
     74 H74        28.6834    2.9067   -3.5361 H         1 UNK         0.0906 
     75 H75        29.7768   -0.1641   -2.2534 H         1 UNK         0.3140 
     76 H76        28.3492   -1.8889   -3.8685 H         1 UNK         0.1085 
     77 H77        29.6130   -2.3088   -1.1141 H         1 UNK         0.0836 
     78 H78        30.3567   -2.5691   -2.6627 H         1 UNK         0.0836 
     79 H79        30.1951   -6.3291   -2.5900 H         1 UNK         0.0731 
     80 H80        31.2216   -4.9542   -2.2648 H         1 UNK         0.0731 
     81 H81        32.3645   -4.1330   -4.1864 H         1 UNK         0.1312 
     82 H82        30.6313   -4.4029   -8.0975 H         1 UNK         0.1406 
     83 H83        28.4869   -5.8939   -4.6945 H         1 UNK         0.1631 
     84 H84        28.1404   -6.6647   -7.3683 H         1 UNK         0.0717 
     85 H85        28.4673   -5.3152   -8.4307 H         1 UNK         0.0717 
     86 H86        27.7592   -2.8357   -5.9440 H         1 UNK         0.0934 
     87 H87        27.8962   -2.8762   -7.6849 H         1 UNK         0.0934 
     88 H88        25.4920   -2.3309   -7.9293 H         1 UNK         0.0739 
     89 H89        25.4427   -2.2134   -4.9434 H         1 UNK         0.3093 
     90 H90        21.8571   -2.1631   -4.9543 H         1 UNK         0.0818 
     91 H91        22.6248   -4.5164   -4.6818 H         1 UNK         0.0819 
     92 H92        24.0189   -3.9853   -3.7522 H         1 UNK         0.0819 
     93 H93        22.3920   -3.7563   -3.1153 H         1 UNK         0.0819 
     94 H94        24.1220   -1.5871   -3.1602 H         1 UNK         0.3041 
     95 H95        24.4039    1.5626   -3.5534 H         1 UNK         0.0784 
     96 H96        22.2358    2.5273   -2.9418 H         1 UNK         0.0793 
     97 H97        22.0349    1.3937   -1.6182 H         1 UNK         0.0793 
     98 H98        23.3048    2.6162   -1.5525 H         1 UNK         0.0793 
     99 H99        25.6418    0.3843   -2.2029 H         1 UNK         0.3024 
    100 H100       25.7052   -0.7256    0.6617 H         1 UNK         0.1171 
    101 H101       25.8990   -3.2358    0.6317 H         1 UNK         0.0786 
    102 H102       24.2390   -2.7040    0.8298 H         1 UNK         0.0786 
    103 H103       24.7837   -3.2987   -0.7316 H         1 UNK         0.0786 
    104 H104       27.5429   -0.8839   -0.5661 H         1 UNK         0.2977 
    105 H105       24.4746   -0.0182   -7.0050 H         1 UNK         0.3127 
    106 H106       26.3251    2.0637   -6.4624 H         1 UNK         0.0770 
    107 H107       23.5236    2.1697   -7.7107 H         1 UNK         0.0814 
    108 H108       24.3984    3.5506   -7.0636 H         1 UNK         0.0814 
    109 H109       23.8996    2.2572   -5.9898 H         1 UNK         0.0814 
    110 H110       25.6043    0.4684   -9.4660 H         1 UNK         0.2983 
    111 H111       26.6152    2.5121  -11.2535 H         1 UNK         0.0947 
    112 H112       26.6045    0.6457  -12.9111 H         1 UNK         0.0806 
    113 H113       25.0797    0.7213  -12.0454 H         1 UNK         0.0806 
    114 H114       26.2698   -0.5149  -11.6342 H         1 UNK         0.0806 
    115 H115       28.0949    0.0271   -9.2381 H         1 UNK         0.3000 
    116 H116       30.7603    0.3393  -10.5143 H         1 UNK         0.0850 
    117 H117       31.4458   -1.4756   -9.0223 H         1 UNK         0.0810 
    118 H118       29.9901   -1.9726   -9.8668 H         1 UNK         0.0810 
    119 H119       29.9051   -1.4605   -8.1812 H         1 UNK         0.0810 
    120 H120       29.0429    0.7900   -7.4121 H         1 UNK         0.3040 
    121 H121       29.2831    2.0669   -5.6526 H         1 UNK         0.0766 
    122 H122       30.5072    4.0466   -7.6504 H         1 UNK         0.0812 
    123 H123       30.0354    4.4638   -6.0033 H         1 UNK         0.0812 
    124 H124       28.8294    3.9233   -7.1501 H         1 UNK         0.0812 
    125 H125       32.2522    3.5761   -6.6961 H         1 UNK         0.3205 
    126 H126       33.7507    2.6083   -4.3991 H         1 UNK         0.0754 
    127 H127       35.5485    4.0598   -5.3493 H         1 UNK         0.0769 
    128 H128       34.0298    4.9325   -5.2421 H         1 UNK         0.0769 
    129 H129       34.5922    4.3261   -6.8004 H         1 UNK         0.0769 
    130 H130       33.2494    1.4516   -7.6361 H         1 UNK         0.2981 
    131 H131       33.9498   -0.2634   -8.7748 H         1 UNK         0.0541 
    132 H132       37.3217    1.5577   -9.2823 H         1 UNK         0.3459 
    133 H133       35.8925    2.1783   -8.4923 H         1 UNK         0.3459 
    134 H134       35.3346   -1.3412   -6.2686 H         1 UNK         0.0612 
    135 H135       34.9719   -2.2504   -7.7088 H         1 UNK         0.0612 
    136 H136       32.9228   -3.7344   -7.8760 H         1 UNK         0.0624 
    137 H137       33.7681   -4.0895   -6.3848 H         1 UNK         0.0624 
@<TRIPOS>BOND
     1    1    2 1    
     2    1   72 1    
     3    1   73 1    
     4    1   74 1    
     5    2    3 2    
     6    2    4 am   BACKBONE|DICT|INTERRES
     7    4    5 1    
     8    4   75 1    
     9    5    6 1    
    10    5   35 1    
    11    5   76 1    
    12    6    7 1    
    13    6   77 1    
    14    6   78 1    
    15    7    8 1    
    16    8    9 1    
    17    8   79 1    
    18    8   80 1    
    19    9   10 ar   
    20    9   14 ar   
    21   10   11 ar   
    22   10   81 1    
    23   11   12 ar   
    24   11   71 1    
    25   12   13 ar   
    26   12   82 1    
    27   13   14 ar   
    28   13   15 1    
    29   14   83 1    
    30   15   16 1    
    31   15   84 1    
    32   15   85 1    
    33   16   17 1    
    34   17   18 1    
    35   17   86 1    
    36   17   87 1    
    37   18   19 1    
    38   18   37 1    
    39   18   88 1    
    40   19   20 am   BACKBONE|DICT|INTERRES
    41   19   89 1    
    42   20   21 2    
    43   20   22 1    
    44   22   23 1    
    45   22   24 1    
    46   22   90 1    
    47   23   91 1    
    48   23   92 1    
    49   23   93 1    
    50   24   25 am   BACKBONE|DICT|INTERRES
    51   24   94 1    
    52   25   26 2    
    53   25   27 1    
    54   27   28 1    
    55   27   29 1    
    56   27   95 1    
    57   28   96 1    
    58   28   97 1    
    59   28   98 1    
    60   29   30 am   BACKBONE|DICT|INTERRES
    61   29   99 1    
    62   30   31 2    
    63   30   32 1    
    64   32   33 1    
    65   32   34 1    
    66   32  100 1    
    67   33  101 1    
    68   33  102 1    
    69   33  103 1    
    70   34   35 am   BACKBONE|DICT|INTERRES
    71   34  104 1    
    72   35   36 2    
    73   37   38 2    
    74   37   39 am   BACKBONE|DICT|INTERRES
    75   39   40 1    
    76   39  105 1    
    77   40   41 1    
    78   40   42 1    
    79   40  106 1    
    80   41  107 1    
    81   41  108 1    
    82   41  109 1    
    83   42   43 2    
    84   42   44 am   BACKBONE|DICT|INTERRES
    85   44   45 1    
    86   44  110 1    
    87   45   46 1    
    88   45   47 1    
    89   45  111 1    
    90   46  112 1    
    91   46  113 1    
    92   46  114 1    
    93   47   48 2    
    94   47   49 am   BACKBONE|DICT|INTERRES
    95   49   50 1    
    96   49  115 1    
    97   50   51 1    
    98   50   52 1    
    99   50  116 1    
   100   51  117 1    
   101   51  118 1    
   102   51  119 1    
   103   52   53 2    
   104   52   54 am   BACKBONE|DICT|INTERRES
   105   54   55 1    
   106   54  120 1    
   107   55   56 1    
   108   55   57 1    
   109   55  121 1    
   110   56  122 1    
   111   56  123 1    
   112   56  124 1    
   113   57   58 2    
   114   57   59 am   BACKBONE|DICT|INTERRES
   115   59   60 1    
   116   59  125 1    
   117   60   61 1    
   118   60   62 1    
   119   60  126 1    
   120   61  127 1    
   121   61  128 1    
   122   61  129 1    
   123   62   63 2    
   124   62   64 am   BACKBONE|DICT|INTERRES
   125   64   65 1    
   126   64  130 1    
   127   65   66 1    
   128   65   69 1    
   129   65  131 1    
   130   66   67 am   BACKBONE|DICT|INTERRES
   131   66   68 2    
   132   67  132 1    
   133   67  133 1    
   134   69   70 1    
   135   69  134 1    
   136   69  135 1    
   137   70   71 1    
   138   71  136 1    
   139   71  137 1    
@<TRIPOS>SUBSTRUCTURE
     1 UNK         1 GROUP             0       ****    0 ROOT    
