@<TRIPOS>MOLECULE
3R137
137   139    1
SMALL
USER_CHARGES


@<TRIPOS>ATOM
      1 CA         26.2782   -5.8303   -3.8310 C.3       0 UNK        -0.2020 
      2 C          26.2988   -4.4236   -3.2546 C.2       0 UNK         0.4855 
      3 O          25.8615   -3.4840   -3.9197 O.2       0 UNK        -0.5197 
      4 N          26.7918   -4.2732   -2.0157 N.am      1 UNK        -0.4892 
      5 CA         26.9046   -3.0116   -1.2591 C.3       1 UNK         0.0835 
      6 C6         27.7422   -1.9370   -2.0152 C.3       12 UNK        -0.0855 
      7 S7         28.8827   -1.0034   -0.9354 S.3       12 UNK        -0.2931 
      8 C8         30.4856   -1.8301   -1.2161 C.3       12 UNK         0.0378 
      9 C9         30.9280   -1.7718   -2.6726 C.ar      12 UNK        -0.0802 
     10 C10        31.4314   -0.5860   -3.2185 C.ar      12 UNK        -0.0944 
     11 C11        31.8105   -0.5324   -4.5637 C.ar      12 UNK        -0.0787 
     12 C12        31.6729   -1.6711   -5.3629 C.ar      12 UNK        -0.0862 
     13 C13        31.1745   -2.8603   -4.8287 C.ar      12 UNK        -0.0733 
     14 C14        30.8216   -2.9098   -3.4782 C.ar      12 UNK        -0.0832 
     15 C15        30.9970   -4.0869   -5.7131 C.3       12 UNK         0.0240 
     16 S16        29.7760   -3.8249   -7.0425 S.3       12 UNK        -0.2522 
     17 C17        28.2809   -3.3318   -6.1220 C.3       12 UNK        -0.0967 
     18 CA         27.5642   -2.1074   -6.7393 C.3       5 UNK         0.0660 
     19 N          26.1595   -2.0572   -6.3200 N.am      5 UNK        -0.4015 
     20 C          25.2076   -1.3877   -6.9809 C.2       4 UNK         0.4946 
     21 O          25.4281   -0.6974   -7.9772 O.2       4 UNK        -0.5353 
     22 CA         23.7704   -1.5009   -6.4424 C.3       4 UNK         0.0277 
     23 CB         23.2425   -2.9382   -6.5897 C.3       4 UNK        -0.1981 
     24 N          23.5684   -1.0506   -5.0601 N.am      4 UNK        -0.4209 
     25 C          23.9807    0.1026   -4.5194 C.2       3 UNK         0.4942 
     26 O          24.7533    0.8798   -5.0736 O.2       3 UNK        -0.5208 
     27 CA         23.4357    0.4840   -3.1310 C.3       3 UNK         0.0250 
     28 CB         22.0499    1.1469   -3.2489 C.3       3 UNK        -0.1990 
     29 N          23.4333   -0.5979   -2.1397 N.am      3 UNK        -0.4232 
     30 C          22.7352   -1.7412   -2.1162 C.2       2 UNK         0.4993 
     31 O          21.9269   -2.0722   -2.9859 O.2       2 UNK        -0.5286 
     32 CA         23.0609   -2.6979   -0.9510 C.3       2 UNK         0.0209 
     33 CB         22.1179   -3.9145   -0.9014 C.3       2 UNK        -0.1931 
     34 N          24.4422   -3.1733   -1.0583 N.am      2 UNK        -0.4546 
     35 C          25.5392   -2.4491   -0.7934 C.2       1 UNK         0.5154 
     36 O          25.4857   -1.3484   -0.2410 O.2       1 UNK        -0.5181 
     37 C          28.2989   -0.7716   -6.4829 C.2       5 UNK         0.5014 
     38 O          29.2063   -0.4194   -7.2418 O.2       5 UNK        -0.5248 
     39 N          27.8602   -0.0217   -5.4601 N.am      6 UNK        -0.4434 
     40 CA         28.3493    1.3245   -5.1600 C.3       6 UNK         0.0363 
     41 CB         27.9276    1.7375   -3.7419 C.3       6 UNK        -0.1936 
     42 C          27.8831    2.3540   -6.2015 C.2       6 UNK         0.5081 
     43 O          28.6854    3.1838   -6.6260 O.2       6 UNK        -0.5248 
     44 N          26.6148    2.2584   -6.6252 N.am      7 UNK        -0.4718 
     45 CA         26.0201    3.0612   -7.6970 C.3       7 UNK         0.0273 
     46 CB         24.4971    2.8545   -7.7128 C.3       7 UNK        -0.1935 
     47 C          26.6276    2.7503   -9.0744 C.2       7 UNK         0.5018 
     48 O          26.8259    3.6729   -9.8657 O.2       7 UNK        -0.5186 
     49 N          26.9468    1.4705   -9.3226 N.am      8 UNK        -0.4240 
     50 CA         27.7079    1.0180  -10.4924 C.3       8 UNK         0.0235 
     51 CB         27.6510   -0.5154  -10.5811 C.3       8 UNK        -0.2000 
     52 C          29.1724    1.4986  -10.4840 C.2       8 UNK         0.4941 
     53 O          29.7643    1.6246  -11.5565 O.2       8 UNK        -0.5273 
     54 N          29.7148    1.7599   -9.2840 N.am      9 UNK        -0.4262 
     55 CA         31.0584    2.2662   -8.9877 C.3       9 UNK         0.0264 
     56 CB         31.2211    3.7135   -9.4978 C.3       9 UNK        -0.1955 
     57 C          32.1692    1.3205   -9.4776 C.2       9 UNK         0.5031 
     58 O          33.1553    1.7733  -10.0618 O.2       9 UNK        -0.5390 
     59 N          31.9813    0.0145   -9.2405 N.am      10 UNK        -0.4204 
     60 CA         32.8965   -1.0398   -9.6908 C.3       10 UNK         0.0237 
     61 CB         32.1709   -2.3927   -9.6343 C.3       10 UNK        -0.1985 
     62 C          34.2183   -1.1067   -8.9020 C.2       10 UNK         0.4970 
     63 O          35.1927   -1.6561   -9.4178 O.2       10 UNK        -0.4914 
     64 N          34.2257   -0.5825   -7.6703 N.am      11 UNK        -0.4285 
     65 CA         35.3902   -0.5448   -6.7781 C.3       11 UNK         0.1007 
     66 C          36.4408    0.5295   -7.1777 C.2       11 UNK         0.5703 
     67 N          37.6767    0.3840   -6.7182 N.am      11 UNK        -0.7361 
     68 O          36.1495    1.4986   -7.8763 O.2       11 UNK        -0.4986 
     69 C69        34.9607   -0.4560   -5.2884 C.3       12 UNK        -0.0947 
     70 S70        34.0924    1.0788   -4.7950 S.3       12 UNK        -0.2240 
     71 C71        32.3363    0.7599   -5.1709 C.3       12 UNK         0.0194 
     72 H72        27.0774   -5.9514   -4.5609 H         1 UNK         0.0906 
     73 H73        25.3282   -6.0176   -4.3308 H         1 UNK         0.0906 
     74 H74        26.4061   -6.5871   -3.0575 H         1 UNK         0.0906 
     75 H75        27.1217   -5.0922   -1.5216 H         1 UNK         0.3140 
     76 H76        27.4331   -3.2796   -0.3427 H         1 UNK         0.1085 
     77 H77        27.0994   -1.2243   -2.5359 H         1 UNK         0.0836 
     78 H78        28.3194   -2.4000   -2.8105 H         1 UNK         0.0836 
     79 H79        31.2419   -1.3531   -0.5910 H         1 UNK         0.0731 
     80 H80        30.4169   -2.8638   -0.8735 H         1 UNK         0.0731 
     81 H81        31.5171    0.2967   -2.5995 H         1 UNK         0.1312 
     82 H82        31.9344   -1.6337   -6.4098 H         1 UNK         0.1406 
     83 H83        30.4323   -3.8279   -3.0592 H         1 UNK         0.1631 
     84 H84        30.6920   -4.9525   -5.1231 H         1 UNK         0.0717 
     85 H85        31.9570   -4.3444   -6.1625 H         1 UNK         0.0717 
     86 H86        27.6149   -4.1948   -6.1494 H         1 UNK         0.0934 
     87 H87        28.5005   -3.1621   -5.0688 H         1 UNK         0.0934 
     88 H88        27.5569   -2.2532   -7.8213 H         1 UNK         0.0739 
     89 H89        25.9127   -2.5788   -5.4785 H         1 UNK         0.3093 
     90 H90        23.1519   -0.8551   -7.0686 H         1 UNK         0.0818 
     91 H91        23.3826   -3.3068   -7.6069 H         1 UNK         0.0819 
     92 H92        23.7536   -3.6283   -5.9169 H         1 UNK         0.0819 
     93 H93        22.1756   -2.9914   -6.3717 H         1 UNK         0.0819 
     94 H94        22.9375   -1.6083   -4.4889 H         1 UNK         0.3041 
     95 H95        24.1194    1.2352   -2.7320 H         1 UNK         0.0784 
     96 H96        22.0874    2.0075   -3.9184 H         1 UNK         0.0793 
     97 H97        21.3002    0.4618   -3.6458 H         1 UNK         0.0793 
     98 H98        21.6983    1.5047   -2.2813 H         1 UNK         0.0793 
     99 H99        24.1249   -0.4959   -1.4014 H         1 UNK         0.3024 
    100 H100       22.9430   -2.1391   -0.0195 H         1 UNK         0.1171 
    101 H101       22.1960   -4.5257   -1.8016 H         1 UNK         0.0786 
    102 H102       22.3368   -4.5510   -0.0439 H         1 UNK         0.0786 
    103 H103       21.0778   -3.5978   -0.8114 H         1 UNK         0.0786 
    104 H104       24.5788   -4.0452   -1.5486 H         1 UNK         0.2977 
    105 H105       27.0646   -0.3471   -4.9314 H         1 UNK         0.3127 
    106 H106       29.4391    1.2984   -5.1901 H         1 UNK         0.0770 
    107 H107       28.2823    2.7422   -3.5086 H         1 UNK         0.0814 
    108 H108       26.8446    1.7377   -3.6194 H         1 UNK         0.0814 
    109 H109       28.3519    1.0669   -2.9960 H         1 UNK         0.0814 
    110 H110       25.9958    1.5918   -6.1645 H         1 UNK         0.2983 
    111 H111       26.2212    4.1120   -7.4778 H         1 UNK         0.0947 
    112 H112       24.2332    1.8124   -7.8971 H         1 UNK         0.0806 
    113 H113       24.0284    3.4550   -8.4935 H         1 UNK         0.0806 
    114 H114       24.0486    3.1477   -6.7634 H         1 UNK         0.0806 
    115 H115       26.6531    0.7603   -8.6579 H         1 UNK         0.3000 
    116 H116       27.2295    1.4313  -11.3829 H         1 UNK         0.0850 
    117 H117       28.1372   -0.8702  -11.4907 H         1 UNK         0.0810 
    118 H118       26.6225   -0.8765  -10.5998 H         1 UNK         0.0810 
    119 H119       28.1580   -0.9859   -9.7390 H         1 UNK         0.0810 
    120 H120       29.1432    1.5695   -8.4703 H         1 UNK         0.3040 
    121 H121       31.1367    2.2941   -7.9002 H         1 UNK         0.0766 
    122 H122       31.1926    3.7655  -10.5866 H         1 UNK         0.0812 
    123 H123       32.1734    4.1367   -9.1760 H         1 UNK         0.0812 
    124 H124       30.4323    4.3583   -9.1097 H         1 UNK         0.0812 
    125 H125       31.1312   -0.2738   -8.7703 H         1 UNK         0.3205 
    126 H126       33.1519   -0.8393  -10.7337 H         1 UNK         0.0754 
    127 H127       32.7915   -3.1860  -10.0532 H         1 UNK         0.0769 
    128 H128       31.2413   -2.3741  -10.2038 H         1 UNK         0.0769 
    129 H129       31.9333   -2.6760   -8.6099 H         1 UNK         0.0769 
    130 H130       33.4097   -0.0895   -7.3490 H         1 UNK         0.2981 
    131 H131       35.8937   -1.5072   -6.8919 H         1 UNK         0.0541 
    132 H132       37.9297   -0.4002   -6.1374 H         1 UNK         0.3459 
    133 H133       38.3713    1.0742   -6.9575 H         1 UNK         0.3459 
    134 H134       35.8432   -0.5383   -4.6521 H         1 UNK         0.0612 
    135 H135       34.3565   -1.3231   -5.0253 H         1 UNK         0.0612 
    136 H136       31.7536    1.6000   -4.7911 H         1 UNK         0.0624 
    137 H137       32.1875    0.7619   -6.2500 H         1 UNK         0.0624 
@<TRIPOS>BOND
     1    1    2 1    
     2    1   72 1    
     3    1   73 1    
     4    1   74 1    
     5    2    3 2    
     6    2    4 am   BACKBONE|DICT|INTERRES
     7    4    5 1    
     8    4   75 1    
     9    5    6 1    
    10    5   35 1    
    11    5   76 1    
    12    6    7 1    
    13    6   77 1    
    14    6   78 1    
    15    7    8 1    
    16    8    9 1    
    17    8   79 1    
    18    8   80 1    
    19    9   10 ar   
    20    9   14 ar   
    21   10   11 ar   
    22   10   81 1    
    23   11   12 ar   
    24   11   71 1    
    25   12   13 ar   
    26   12   82 1    
    27   13   14 ar   
    28   13   15 1    
    29   14   83 1    
    30   15   16 1    
    31   15   84 1    
    32   15   85 1    
    33   16   17 1    
    34   17   18 1    
    35   17   86 1    
    36   17   87 1    
    37   18   19 1    
    38   18   37 1    
    39   18   88 1    
    40   19   20 am   BACKBONE|DICT|INTERRES
    41   19   89 1    
    42   20   21 2    
    43   20   22 1    
    44   22   23 1    
    45   22   24 1    
    46   22   90 1    
    47   23   91 1    
    48   23   92 1    
    49   23   93 1    
    50   24   25 am   BACKBONE|DICT|INTERRES
    51   24   94 1    
    52   25   26 2    
    53   25   27 1    
    54   27   28 1    
    55   27   29 1    
    56   27   95 1    
    57   28   96 1    
    58   28   97 1    
    59   28   98 1    
    60   29   30 am   BACKBONE|DICT|INTERRES
    61   29   99 1    
    62   30   31 2    
    63   30   32 1    
    64   32   33 1    
    65   32   34 1    
    66   32  100 1    
    67   33  101 1    
    68   33  102 1    
    69   33  103 1    
    70   34   35 am   BACKBONE|DICT|INTERRES
    71   34  104 1    
    72   35   36 2    
    73   37   38 2    
    74   37   39 am   BACKBONE|DICT|INTERRES
    75   39   40 1    
    76   39  105 1    
    77   40   41 1    
    78   40   42 1    
    79   40  106 1    
    80   41  107 1    
    81   41  108 1    
    82   41  109 1    
    83   42   43 2    
    84   42   44 am   BACKBONE|DICT|INTERRES
    85   44   45 1    
    86   44  110 1    
    87   45   46 1    
    88   45   47 1    
    89   45  111 1    
    90   46  112 1    
    91   46  113 1    
    92   46  114 1    
    93   47   48 2    
    94   47   49 am   BACKBONE|DICT|INTERRES
    95   49   50 1    
    96   49  115 1    
    97   50   51 1    
    98   50   52 1    
    99   50  116 1    
   100   51  117 1    
   101   51  118 1    
   102   51  119 1    
   103   52   53 2    
   104   52   54 am   BACKBONE|DICT|INTERRES
   105   54   55 1    
   106   54  120 1    
   107   55   56 1    
   108   55   57 1    
   109   55  121 1    
   110   56  122 1    
   111   56  123 1    
   112   56  124 1    
   113   57   58 2    
   114   57   59 am   BACKBONE|DICT|INTERRES
   115   59   60 1    
   116   59  125 1    
   117   60   61 1    
   118   60   62 1    
   119   60  126 1    
   120   61  127 1    
   121   61  128 1    
   122   61  129 1    
   123   62   63 2    
   124   62   64 am   BACKBONE|DICT|INTERRES
   125   64   65 1    
   126   64  130 1    
   127   65   66 1    
   128   65   69 1    
   129   65  131 1    
   130   66   67 am   BACKBONE|DICT|INTERRES
   131   66   68 2    
   132   67  132 1    
   133   67  133 1    
   134   69   70 1    
   135   69  134 1    
   136   69  135 1    
   137   70   71 1    
   138   71  136 1    
   139   71  137 1    
@<TRIPOS>SUBSTRUCTURE
     1 UNK         1 GROUP             0       ****    0 ROOT    
