@<TRIPOS>MOLECULE
3R137
137   139    1
SMALL
USER_CHARGES


@<TRIPOS>ATOM
      1 CA         27.6150   -3.9158    1.9999 C.3       0 UNK        -0.2020 
      2 C          27.6864   -3.1351    0.6968 C.2       0 UNK         0.4855 
      3 O          27.4903   -3.7162   -0.3710 O.2       0 UNK        -0.5197 
      4 N          27.9676   -1.8264    0.7795 N.am      1 UNK        -0.4892 
      5 CA         28.0931   -0.8432   -0.3125 C.3       1 UNK         0.0835 
      6 C6         29.1847   -1.1783   -1.3649 C.3       12 UNK        -0.0855 
      7 S7         30.8585   -1.3388   -0.6490 S.3       12 UNK        -0.2931 
      8 C8         31.1408   -3.1412   -0.6603 C.3       12 UNK         0.0378 
      9 C9         31.2967   -3.6964   -2.0687 C.ar      12 UNK        -0.0802 
     10 C10        32.5366   -3.6439   -2.7111 C.ar      12 UNK        -0.0944 
     11 C11        32.6887   -4.1611   -4.0010 C.ar      12 UNK        -0.0787 
     12 C12        31.5889   -4.7313   -4.6490 C.ar      12 UNK        -0.0862 
     13 C13        30.3361   -4.7614   -4.0288 C.ar      12 UNK        -0.0733 
     14 C14        30.2043   -4.2679   -2.7283 C.ar      12 UNK        -0.0832 
     15 C15        29.1147   -5.2983   -4.7657 C.3       12 UNK         0.0240 
     16 S16        28.8329   -4.4674   -6.3662 S.3       12 UNK        -0.2522 
     17 C17        28.9131   -2.7015   -5.9102 C.3       12 UNK        -0.0967 
     18 CA         28.1327   -1.8174   -6.9119 C.3       5 UNK         0.0660 
     19 N          26.6852   -1.9985   -6.8064 N.am      5 UNK        -0.4015 
     20 C          25.8970   -2.4532   -7.7909 C.2       4 UNK         0.4946 
     21 O          26.3144   -2.8628   -8.8749 O.2       4 UNK        -0.5353 
     22 CA         24.3741   -2.4486   -7.5487 C.3       4 UNK         0.0277 
     23 CB         23.8867   -3.8641   -7.1975 C.3       4 UNK        -0.1981 
     24 N          23.9222   -1.5187   -6.5100 N.am      4 UNK        -0.4209 
     25 C          24.1130   -0.1920   -6.5121 C.2       3 UNK         0.4942 
     26 O          24.6690    0.4227   -7.4217 O.2       3 UNK        -0.5208 
     27 CA         23.6821    0.5706   -5.2467 C.3       3 UNK         0.0250 
     28 CB         22.2383    1.0761   -5.3933 C.3       3 UNK        -0.1990 
     29 N          23.8059   -0.1929   -3.9975 N.am      3 UNK        -0.4232 
     30 C          24.9127   -0.8049   -3.5508 C.2       2 UNK         0.4993 
     31 O          25.9701   -0.8716   -4.1866 O.2       2 UNK        -0.5286 
     32 CA         24.7871   -1.5185   -2.1965 C.3       2 UNK         0.0209 
     33 CB         24.2746   -2.9531   -2.4035 C.3       2 UNK        -0.1931 
     34 N          26.0598   -1.5774   -1.4796 N.am      2 UNK        -0.4546 
     35 C          26.7438   -0.5339   -0.9962 C.2       1 UNK         0.5154 
     36 O          26.3420    0.6294   -1.0494 O.2       1 UNK        -0.5181 
     37 C          28.5045   -0.3333   -6.7431 C.2       5 UNK         0.5014 
     38 O          29.3178    0.1641   -7.5243 O.2       5 UNK        -0.5248 
     39 N          27.9300    0.3450   -5.7377 N.am      6 UNK        -0.4434 
     40 CA         28.2665    1.7221   -5.3687 C.3       6 UNK         0.0363 
     41 CB         27.7235    2.0353   -3.9643 C.3       6 UNK        -0.1936 
     42 C          27.7764    2.7589   -6.3890 C.2       6 UNK         0.5081 
     43 O          28.5918    3.4864   -6.9538 O.2       6 UNK        -0.5248 
     44 N          26.4570    2.8080   -6.6213 N.am      7 UNK        -0.4718 
     45 CA         25.8226    3.7471   -7.5570 C.3       7 UNK         0.0273 
     46 CB         24.3093    3.8144   -7.2972 C.3       7 UNK        -0.1935 
     47 C          26.1158    3.3961   -9.0245 C.2       7 UNK         0.5018 
     48 O          26.1973    4.2960   -9.8606 O.2       7 UNK        -0.5186 
     49 N          26.3248    2.1002   -9.2937 N.am      8 UNK        -0.4240 
     50 CA         26.8422    1.5690  -10.5563 C.3       8 UNK         0.0235 
     51 CB         26.6868    0.0407  -10.5463 C.3       8 UNK        -0.2000 
     52 C          28.3111    1.9496  -10.8372 C.2       8 UNK         0.4941 
     53 O          28.7481    1.8062  -11.9796 O.2       8 UNK        -0.5273 
     54 N          29.0411    2.4093   -9.8070 N.am      9 UNK        -0.4262 
     55 CA         30.4527    2.8078   -9.8127 C.3       9 UNK         0.0264 
     56 CB         30.6684    4.0633  -10.6846 C.3       9 UNK        -0.1955 
     57 C          31.4078    1.6519  -10.1661 C.2       9 UNK         0.5031 
     58 O          32.4256    1.8747  -10.8257 O.2       9 UNK        -0.5390 
     59 N          31.0719    0.4377   -9.7101 N.am      10 UNK        -0.4204 
     60 CA         31.9090   -0.7542   -9.8505 C.3       10 UNK         0.0237 
     61 CB         31.0406   -2.0174   -9.7316 C.3       10 UNK        -0.1985 
     62 C          33.0280   -0.7686   -8.7992 C.2       10 UNK         0.4970 
     63 O          34.1566   -1.1379   -9.1255 O.2       10 UNK        -0.4914 
     64 N          32.6910   -0.3512   -7.5732 N.am      11 UNK        -0.4285 
     65 CA         33.5942   -0.2227   -6.4244 C.3       11 UNK         0.1007 
     66 C          33.3308    1.1217   -5.6999 C.2       11 UNK         0.5703 
     67 N          34.3228    1.6502   -4.9966 N.am      11 UNK        -0.7361 
     68 O          32.2350    1.6787   -5.7484 O.2       11 UNK        -0.4986 
     69 C69        33.4611   -1.4163   -5.4407 C.3       12 UNK        -0.0947 
     70 S70        33.9729   -3.0067   -6.1733 S.3       12 UNK        -0.2240 
     71 C71        34.0350   -4.0813   -4.7053 C.3       12 UNK         0.0194 
     72 H72        28.3452   -4.7246    1.9913 H         1 UNK         0.0906 
     73 H73        26.6241   -4.3529    2.1205 H         1 UNK         0.0906 
     74 H74        27.8165   -3.2864    2.8664 H         1 UNK         0.0906 
     75 H75        28.0982   -1.4299    1.7003 H         1 UNK         0.3140 
     76 H76        28.3974    0.0857    0.1736 H         1 UNK         0.1085 
     77 H77        29.2417   -0.3841   -2.1105 H         1 UNK         0.0836 
     78 H78        28.9185   -2.0729   -1.9229 H         1 UNK         0.0836 
     79 H79        32.0444   -3.3533   -0.0867 H         1 UNK         0.0731 
     80 H80        30.3328   -3.6501   -0.1367 H         1 UNK         0.0731 
     81 H81        33.3808   -3.1936   -2.2067 H         1 UNK         0.1312 
     82 H82        31.6994   -5.1140   -5.6546 H         1 UNK         0.1406 
     83 H83        29.2431   -4.3110   -2.2344 H         1 UNK         0.1631 
     84 H84        28.2151   -5.1884   -4.1579 H         1 UNK         0.0717 
     85 H85        29.2429   -6.3675   -4.9385 H         1 UNK         0.0717 
     86 H86        28.5320   -2.5650   -4.8958 H         1 UNK         0.0934 
     87 H87        29.9690   -2.4221   -5.8832 H         1 UNK         0.0934 
     88 H88        28.4600   -2.0891   -7.9169 H         1 UNK         0.0739 
     89 H89        26.2563   -1.6886   -5.9403 H         1 UNK         0.3093 
     90 H90        23.9030   -2.1431   -8.4853 H         1 UNK         0.0818 
     91 H91        24.1797   -4.5799   -7.9671 H         1 UNK         0.0819 
     92 H92        24.3069   -4.2126   -6.2530 H         1 UNK         0.0819 
     93 H93        22.8001   -3.9040   -7.1194 H         1 UNK         0.0819 
     94 H94        23.4618   -1.9264   -5.7097 H         1 UNK         0.3041 
     95 H95        24.3354    1.4389   -5.1527 H         1 UNK         0.0784 
     96 H96        22.1113    1.6479   -6.3134 H         1 UNK         0.0793 
     97 H97        21.5230    0.2531   -5.4229 H         1 UNK         0.0793 
     98 H98        21.9614    1.7326   -4.5681 H         1 UNK         0.0793 
     99 H99        22.9807   -0.2162   -3.4149 H         1 UNK         0.3024 
    100 H100       24.0786   -0.9686   -1.5731 H         1 UNK         0.1171 
    101 H101       24.9591   -3.5396   -3.0184 H         1 UNK         0.0786 
    102 H102       24.1541   -3.4718   -1.4520 H         1 UNK         0.0786 
    103 H103       23.3026   -2.9592   -2.8985 H         1 UNK         0.0786 
    104 H104       26.4749   -2.4961   -1.3430 H         1 UNK         0.2977 
    105 H105       27.2596   -0.1292   -5.1331 H         1 UNK         0.3127 
    106 H106       29.3557    1.7981   -5.3264 H         1 UNK         0.0770 
    107 H107       27.9494    3.0632   -3.6775 H         1 UNK         0.0814 
    108 H108       26.6424    1.9089   -3.9016 H         1 UNK         0.0814 
    109 H109       28.1744    1.3880   -3.2142 H         1 UNK         0.0814 
    110 H110       25.8580    2.1275   -6.1789 H         1 UNK         0.2983 
    111 H111       26.2397    4.7393   -7.3695 H         1 UNK         0.0947 
    112 H112       23.8094    2.8825   -7.5581 H         1 UNK         0.0806 
    113 H113       23.8512    4.6009   -7.8984 H         1 UNK         0.0806 
    114 H114       24.0905    4.0373   -6.2529 H         1 UNK         0.0806 
    115 H115       26.1282    1.4313   -8.5568 H         1 UNK         0.3000 
    116 H116       26.2353    1.9761  -11.3677 H         1 UNK         0.0850 
    117 H117       26.9881   -0.3905  -11.5018 H         1 UNK         0.0810 
    118 H118       25.6529   -0.2561  -10.3680 H         1 UNK         0.0810 
    119 H119       27.3054   -0.4185   -9.7744 H         1 UNK         0.0810 
    120 H120       28.5905    2.4862   -8.9027 H         1 UNK         0.3040 
    121 H121       30.6885    3.0810   -8.7829 H         1 UNK         0.0766 
    122 H122       30.5124    3.8534  -11.7431 H         1 UNK         0.0812 
    123 H123       31.6841    4.4454  -10.5756 H         1 UNK         0.0812 
    124 H124       29.9889    4.8658  -10.3971 H         1 UNK         0.0812 
    125 H125       30.2581    0.3601   -9.1019 H         1 UNK         0.3205 
    126 H126       32.3676   -0.7485  -10.8418 H         1 UNK         0.0754 
    127 H127       31.6272   -2.9107   -9.9495 H         1 UNK         0.0769 
    128 H128       30.2053   -1.9968  -10.4320 H         1 UNK         0.0769 
    129 H129       30.6366   -2.1370   -8.7264 H         1 UNK         0.0769 
    130 H130       31.7529   -0.0075   -7.4107 H         1 UNK         0.2981 
    131 H131       34.6235   -0.1846   -6.7869 H         1 UNK         0.0541 
    132 H132       34.1669    2.5197   -4.5112 H         1 UNK         0.3459 
    133 H133       35.2233    1.2004   -4.9415 H         1 UNK         0.3459 
    134 H134       32.4305   -1.5086   -5.0921 H         1 UNK         0.0612 
    135 H135       34.0732   -1.2493   -4.5524 H         1 UNK         0.0612 
    136 H136       34.3394   -5.0826   -5.0125 H         1 UNK         0.0624 
    137 H137       34.8100   -3.7157   -4.0299 H         1 UNK         0.0624 
@<TRIPOS>BOND
     1    1    2 1    
     2    1   72 1    
     3    1   73 1    
     4    1   74 1    
     5    2    3 2    
     6    2    4 am   BACKBONE|DICT|INTERRES
     7    4    5 1    
     8    4   75 1    
     9    5    6 1    
    10    5   35 1    
    11    5   76 1    
    12    6    7 1    
    13    6   77 1    
    14    6   78 1    
    15    7    8 1    
    16    8    9 1    
    17    8   79 1    
    18    8   80 1    
    19    9   10 ar   
    20    9   14 ar   
    21   10   11 ar   
    22   10   81 1    
    23   11   12 ar   
    24   11   71 1    
    25   12   13 ar   
    26   12   82 1    
    27   13   14 ar   
    28   13   15 1    
    29   14   83 1    
    30   15   16 1    
    31   15   84 1    
    32   15   85 1    
    33   16   17 1    
    34   17   18 1    
    35   17   86 1    
    36   17   87 1    
    37   18   19 1    
    38   18   37 1    
    39   18   88 1    
    40   19   20 am   BACKBONE|DICT|INTERRES
    41   19   89 1    
    42   20   21 2    
    43   20   22 1    
    44   22   23 1    
    45   22   24 1    
    46   22   90 1    
    47   23   91 1    
    48   23   92 1    
    49   23   93 1    
    50   24   25 am   BACKBONE|DICT|INTERRES
    51   24   94 1    
    52   25   26 2    
    53   25   27 1    
    54   27   28 1    
    55   27   29 1    
    56   27   95 1    
    57   28   96 1    
    58   28   97 1    
    59   28   98 1    
    60   29   30 am   BACKBONE|DICT|INTERRES
    61   29   99 1    
    62   30   31 2    
    63   30   32 1    
    64   32   33 1    
    65   32   34 1    
    66   32  100 1    
    67   33  101 1    
    68   33  102 1    
    69   33  103 1    
    70   34   35 am   BACKBONE|DICT|INTERRES
    71   34  104 1    
    72   35   36 2    
    73   37   38 2    
    74   37   39 am   BACKBONE|DICT|INTERRES
    75   39   40 1    
    76   39  105 1    
    77   40   41 1    
    78   40   42 1    
    79   40  106 1    
    80   41  107 1    
    81   41  108 1    
    82   41  109 1    
    83   42   43 2    
    84   42   44 am   BACKBONE|DICT|INTERRES
    85   44   45 1    
    86   44  110 1    
    87   45   46 1    
    88   45   47 1    
    89   45  111 1    
    90   46  112 1    
    91   46  113 1    
    92   46  114 1    
    93   47   48 2    
    94   47   49 am   BACKBONE|DICT|INTERRES
    95   49   50 1    
    96   49  115 1    
    97   50   51 1    
    98   50   52 1    
    99   50  116 1    
   100   51  117 1    
   101   51  118 1    
   102   51  119 1    
   103   52   53 2    
   104   52   54 am   BACKBONE|DICT|INTERRES
   105   54   55 1    
   106   54  120 1    
   107   55   56 1    
   108   55   57 1    
   109   55  121 1    
   110   56  122 1    
   111   56  123 1    
   112   56  124 1    
   113   57   58 2    
   114   57   59 am   BACKBONE|DICT|INTERRES
   115   59   60 1    
   116   59  125 1    
   117   60   61 1    
   118   60   62 1    
   119   60  126 1    
   120   61  127 1    
   121   61  128 1    
   122   61  129 1    
   123   62   63 2    
   124   62   64 am   BACKBONE|DICT|INTERRES
   125   64   65 1    
   126   64  130 1    
   127   65   66 1    
   128   65   69 1    
   129   65  131 1    
   130   66   67 am   BACKBONE|DICT|INTERRES
   131   66   68 2    
   132   67  132 1    
   133   67  133 1    
   134   69   70 1    
   135   69  134 1    
   136   69  135 1    
   137   70   71 1    
   138   71  136 1    
   139   71  137 1    
@<TRIPOS>SUBSTRUCTURE
     1 UNK         1 GROUP             0       ****    0 ROOT    
