@<TRIPOS>MOLECULE
3R137
137   139    1
SMALL
USER_CHARGES


@<TRIPOS>ATOM
      1 CA         26.4039   -6.7121   -3.1881 C.3       0 UNK        -0.2020 
      2 C          26.3513   -5.9993   -1.8453 C.2       0 UNK         0.4855 
      3 O          25.4507   -6.2644   -1.0485 O.2       0 UNK        -0.5197 
      4 N          27.3140   -5.1051   -1.5838 N.am      1 UNK        -0.4892 
      5 CA         27.4206   -4.3425   -0.3323 C.3       1 UNK         0.0835 
      6 C6         28.8626   -3.8481   -0.0495 C.3       12 UNK        -0.0855 
      7 S7         30.0647   -5.2312   -0.0390 S.3       12 UNK        -0.2931 
      8 C8         31.5477   -4.5314   -0.8508 C.3       12 UNK         0.0378 
      9 C9         31.2583   -3.8215   -2.1700 C.ar      12 UNK        -0.0802 
     10 C10        31.8059   -2.5561   -2.4079 C.ar      12 UNK        -0.0944 
     11 C11        31.5015   -1.8508   -3.5764 C.ar      12 UNK        -0.0787 
     12 C12        30.6326   -2.4269   -4.5079 C.ar      12 UNK        -0.0862 
     13 C13        30.0698   -3.6837   -4.2783 C.ar      12 UNK        -0.0733 
     14 C14        30.4147   -4.3952   -3.1274 C.ar      12 UNK        -0.0832 
     15 C15        29.0355   -4.2283   -5.2453 C.3       12 UNK         0.0240 
     16 S16        27.3717   -3.6755   -4.7436 S.3       12 UNK        -0.2522 
     17 C17        26.5294   -3.5913   -6.3584 C.3       12 UNK        -0.0967 
     18 CA         26.3555   -2.1710   -6.9625 C.3       5 UNK         0.0660 
     19 N          25.1891   -1.4481   -6.4515 N.am      5 UNK        -0.4015 
     20 C          24.5674   -0.4863   -7.1530 C.2       4 UNK         0.4946 
     21 O          24.9025   -0.1435   -8.2885 O.2       4 UNK        -0.5353 
     22 CA         23.4003    0.2403   -6.4658 C.3       4 UNK         0.0277 
     23 CB         22.1344   -0.6320   -6.4686 C.3       4 UNK        -0.1981 
     24 N          23.7165    0.6509   -5.0974 N.am      4 UNK        -0.4209 
     25 C          24.6697    1.5353   -4.7695 C.2       3 UNK         0.4942 
     26 O          25.3609    2.1339   -5.5926 O.2       3 UNK        -0.5208 
     27 CA         24.9169    1.7693   -3.2685 C.3       3 UNK         0.0250 
     28 CB         24.0499    2.9317   -2.7591 C.3       3 UNK        -0.1990 
     29 N          24.6896    0.5859   -2.4313 N.am      3 UNK        -0.4232 
     30 C          25.3287   -0.5858   -2.5572 C.2       2 UNK         0.4993 
     31 O          26.1640   -0.8244   -3.4332 O.2       2 UNK        -0.5286 
     32 CA         24.9045   -1.6850   -1.5783 C.3       2 UNK         0.0209 
     33 CB         23.6303   -2.3846   -2.0839 C.3       2 UNK        -0.1931 
     34 N          25.9608   -2.6861   -1.4394 N.am      2 UNK        -0.4546 
     35 C          26.4029   -3.1829   -0.2749 C.2       1 UNK         0.5154 
     36 O          26.0158   -2.7840    0.8250 O.2       1 UNK        -0.5181 
     37 C          27.6211   -1.2900   -6.9249 C.2       5 UNK         0.5014 
     38 O          28.4446   -1.4095   -7.8287 O.2       5 UNK        -0.5248 
     39 N          27.7374   -0.3929   -5.9312 N.am      6 UNK        -0.4434 
     40 CA         28.8013    0.6138   -5.8442 C.3       6 UNK         0.0363 
     41 CB         28.7081    1.3711   -4.5127 C.3       6 UNK        -0.1936 
     42 C          28.8097    1.5863   -7.0321 C.2       6 UNK         0.5081 
     43 O          29.8834    1.8905   -7.5535 O.2       6 UNK        -0.5248 
     44 N          27.6183    2.0214   -7.4636 N.am      7 UNK        -0.4718 
     45 CA         27.4211    2.8253   -8.6694 C.3       7 UNK         0.0273 
     46 CB         25.9808    3.3600   -8.7063 C.3       7 UNK        -0.1935 
     47 C          27.7517    2.0472   -9.9537 C.2       7 UNK         0.5018 
     48 O          28.4205    2.5969  -10.8286 O.2       7 UNK        -0.5186 
     49 N          27.3035    0.7848  -10.0363 N.am      8 UNK        -0.4240 
     50 CA         27.5535   -0.1099  -11.1722 C.3       8 UNK         0.0235 
     51 CB         26.6836   -1.3705  -11.0460 C.3       8 UNK        -0.2000 
     52 C          29.0371   -0.4864  -11.3327 C.2       8 UNK         0.4941 
     53 O          29.5514   -0.4524  -12.4512 O.2       8 UNK        -0.5273 
     54 N          29.7006   -0.8212  -10.2174 N.am      9 UNK        -0.4262 
     55 CA         31.1307   -1.1365  -10.1518 C.3       9 UNK         0.0264 
     56 CB         31.4248   -1.8675   -8.8307 C.3       9 UNK        -0.1955 
     57 C          32.0353    0.1015  -10.2806 C.2       9 UNK         0.5031 
     58 O          33.2186   -0.0588  -10.5834 O.2       9 UNK        -0.5390 
     59 N          31.4707    1.2941  -10.0387 N.am      10 UNK        -0.4204 
     60 CA         32.1202    2.6060   -9.9999 C.3       10 UNK         0.0237 
     61 CB         32.6668    3.0024  -11.3884 C.3       10 UNK        -0.1985 
     62 C          33.1711    2.6832   -8.8780 C.2       10 UNK         0.4970 
     63 O          34.3306    3.0141   -9.1352 O.2       10 UNK        -0.4914 
     64 N          32.7377    2.3692   -7.6494 N.am      11 UNK        -0.4285 
     65 CA         33.5623    2.4409   -6.4305 C.3       11 UNK         0.1007 
     66 C          34.0030    3.8813   -6.0312 C.2       11 UNK         0.5703 
     67 N          33.3438    4.9349   -6.5003 N.am      11 UNK        -0.7361 
     68 O          34.9641    4.0428   -5.2827 O.2       11 UNK        -0.4986 
     69 C69        32.8794    1.7457   -5.2249 C.3       12 UNK        -0.0947 
     70 S70        32.6146   -0.0442   -5.4428 S.3       12 UNK        -0.2240 
     71 C71        32.0328   -0.4320   -3.7579 C.3       12 UNK         0.0194 
     72 H72        25.6407   -6.3120   -3.8551 H         1 UNK         0.0906 
     73 H73        27.3744   -6.5981   -3.6700 H         1 UNK         0.0906 
     74 H74        26.2190   -7.7780   -3.0574 H         1 UNK         0.0906 
     75 H75        28.0155   -4.9022   -2.2805 H         1 UNK         0.3140 
     76 H76        27.1518   -5.0170    0.4844 H         1 UNK         0.1085 
     77 H77        28.9110   -3.3582    0.9250 H         1 UNK         0.0836 
     78 H78        29.1511   -3.0905   -0.7790 H         1 UNK         0.0836 
     79 H79        32.0265   -3.8488   -0.1468 H         1 UNK         0.0731 
     80 H80        32.2620   -5.3352   -1.0332 H         1 UNK         0.0731 
     81 H81        32.4485   -2.1038   -1.6646 H         1 UNK         0.1312 
     82 H82        30.3628   -1.8913   -5.4040 H         1 UNK         0.1406 
     83 H83        29.9887   -5.3729   -2.9495 H         1 UNK         0.1631 
     84 H84        29.0675   -5.3182   -5.2774 H         1 UNK         0.0717 
     85 H85        29.2638   -3.8801   -6.2542 H         1 UNK         0.0717 
     86 H86        27.0742   -4.2178   -7.0668 H         1 UNK         0.0934 
     87 H87        25.5551   -4.0718   -6.2567 H         1 UNK         0.0934 
     88 H88        26.1563   -2.3463   -8.0216 H         1 UNK         0.0739 
     89 H89        24.9155   -1.6350   -5.4975 H         1 UNK         0.3093 
     90 H90        23.1918    1.1440   -7.0430 H         1 UNK         0.0818 
     91 H91        21.2773   -0.0874   -6.0721 H         1 UNK         0.0819 
     92 H92        21.8773   -0.9410   -7.4829 H         1 UNK         0.0819 
     93 H93        22.2607   -1.5378   -5.8742 H         1 UNK         0.0819 
     94 H94        23.1909    0.2173   -4.3530 H         1 UNK         0.3041 
     95 H95        25.9629    2.0528   -3.1469 H         1 UNK         0.0784 
     96 H96        24.2189    3.8324   -3.3514 H         1 UNK         0.0793 
     97 H97        22.9857    2.6993   -2.8163 H         1 UNK         0.0793 
     98 H98        24.2855    3.1798   -1.7240 H         1 UNK         0.0793 
     99 H99        24.0052    0.6870   -1.6951 H         1 UNK         0.3024 
    100 H100       24.6985   -1.2152   -0.6136 H         1 UNK         0.1171 
    101 H101       22.8035   -1.6807   -2.1867 H         1 UNK         0.0786 
    102 H102       23.3068   -3.1614   -1.3906 H         1 UNK         0.0786 
    103 H103       23.7869   -2.8531   -3.0567 H         1 UNK         0.0786 
    104 H104       26.3807   -3.0009   -2.3051 H         1 UNK         0.2977 
    105 H105       27.0622   -0.4172   -5.1718 H         1 UNK         0.3127 
    106 H106       29.7543    0.0924   -5.8687 H         1 UNK         0.0770 
    107 H107       27.8191    1.9974   -4.4703 H         1 UNK         0.0814 
    108 H108       29.5677    2.0279   -4.3790 H         1 UNK         0.0814 
    109 H109       28.6831    0.6865   -3.6644 H         1 UNK         0.0814 
    110 H110       26.7879    1.7873   -6.9263 H         1 UNK         0.2983 
    111 H111       28.0998    3.6795   -8.6166 H         1 UNK         0.0947 
    112 H112       25.8144    3.9754   -9.5914 H         1 UNK         0.0806 
    113 H113       25.7673    3.9793   -7.8349 H         1 UNK         0.0806 
    114 H114       25.2486    2.5520   -8.7261 H         1 UNK         0.0806 
    115 H115       26.7241    0.4258   -9.2851 H         1 UNK         0.3000 
    116 H116       27.2482    0.4196  -12.0774 H         1 UNK         0.0850 
    117 H117       26.7859   -2.0022  -11.9293 H         1 UNK         0.0810 
    118 H118       25.6274   -1.1185  -10.9471 H         1 UNK         0.0810 
    119 H119       26.9682   -1.9724  -10.1835 H         1 UNK         0.0810 
    120 H120       29.1847   -0.8943   -9.3390 H         1 UNK         0.3040 
    121 H121       31.3719   -1.8089  -10.9777 H         1 UNK         0.0766 
    122 H122       32.4757   -2.1518   -8.7637 H         1 UNK         0.0812 
    123 H123       30.8344   -2.7793   -8.7398 H         1 UNK         0.0812 
    124 H124       31.2025   -1.2386   -7.9675 H         1 UNK         0.0812 
    125 H125       30.5018    1.2915   -9.7463 H         1 UNK         0.3205 
    126 H126       31.3390    3.3222   -9.7401 H         1 UNK         0.0754 
    127 H127       33.0506    4.0232  -11.3778 H         1 UNK         0.0769 
    128 H128       31.8851    2.9574  -12.1469 H         1 UNK         0.0769 
    129 H129       33.4823    2.3532  -11.7083 H         1 UNK         0.0769 
    130 H130       31.7603    2.1153   -7.5254 H         1 UNK         0.2981 
    131 H131       34.4844    1.8963   -6.6419 H         1 UNK         0.0541 
    132 H132       32.5498    4.8130   -7.1074 H         1 UNK         0.3459 
    133 H133       33.6419    5.8608   -6.2368 H         1 UNK         0.3459 
    134 H134       31.9169    2.2159   -5.0175 H         1 UNK         0.0612 
    135 H135       33.4827    1.8728   -4.3236 H         1 UNK         0.0612 
    136 H136       31.2378    0.2628   -3.4868 H         1 UNK         0.0624 
    137 H137       32.8551   -0.2449   -3.0655 H         1 UNK         0.0624 
@<TRIPOS>BOND
     1    1    2 1    
     2    1   72 1    
     3    1   73 1    
     4    1   74 1    
     5    2    3 2    
     6    2    4 am   BACKBONE|DICT|INTERRES
     7    4    5 1    
     8    4   75 1    
     9    5    6 1    
    10    5   35 1    
    11    5   76 1    
    12    6    7 1    
    13    6   77 1    
    14    6   78 1    
    15    7    8 1    
    16    8    9 1    
    17    8   79 1    
    18    8   80 1    
    19    9   10 ar   
    20    9   14 ar   
    21   10   11 ar   
    22   10   81 1    
    23   11   12 ar   
    24   11   71 1    
    25   12   13 ar   
    26   12   82 1    
    27   13   14 ar   
    28   13   15 1    
    29   14   83 1    
    30   15   16 1    
    31   15   84 1    
    32   15   85 1    
    33   16   17 1    
    34   17   18 1    
    35   17   86 1    
    36   17   87 1    
    37   18   19 1    
    38   18   37 1    
    39   18   88 1    
    40   19   20 am   BACKBONE|DICT|INTERRES
    41   19   89 1    
    42   20   21 2    
    43   20   22 1    
    44   22   23 1    
    45   22   24 1    
    46   22   90 1    
    47   23   91 1    
    48   23   92 1    
    49   23   93 1    
    50   24   25 am   BACKBONE|DICT|INTERRES
    51   24   94 1    
    52   25   26 2    
    53   25   27 1    
    54   27   28 1    
    55   27   29 1    
    56   27   95 1    
    57   28   96 1    
    58   28   97 1    
    59   28   98 1    
    60   29   30 am   BACKBONE|DICT|INTERRES
    61   29   99 1    
    62   30   31 2    
    63   30   32 1    
    64   32   33 1    
    65   32   34 1    
    66   32  100 1    
    67   33  101 1    
    68   33  102 1    
    69   33  103 1    
    70   34   35 am   BACKBONE|DICT|INTERRES
    71   34  104 1    
    72   35   36 2    
    73   37   38 2    
    74   37   39 am   BACKBONE|DICT|INTERRES
    75   39   40 1    
    76   39  105 1    
    77   40   41 1    
    78   40   42 1    
    79   40  106 1    
    80   41  107 1    
    81   41  108 1    
    82   41  109 1    
    83   42   43 2    
    84   42   44 am   BACKBONE|DICT|INTERRES
    85   44   45 1    
    86   44  110 1    
    87   45   46 1    
    88   45   47 1    
    89   45  111 1    
    90   46  112 1    
    91   46  113 1    
    92   46  114 1    
    93   47   48 2    
    94   47   49 am   BACKBONE|DICT|INTERRES
    95   49   50 1    
    96   49  115 1    
    97   50   51 1    
    98   50   52 1    
    99   50  116 1    
   100   51  117 1    
   101   51  118 1    
   102   51  119 1    
   103   52   53 2    
   104   52   54 am   BACKBONE|DICT|INTERRES
   105   54   55 1    
   106   54  120 1    
   107   55   56 1    
   108   55   57 1    
   109   55  121 1    
   110   56  122 1    
   111   56  123 1    
   112   56  124 1    
   113   57   58 2    
   114   57   59 am   BACKBONE|DICT|INTERRES
   115   59   60 1    
   116   59  125 1    
   117   60   61 1    
   118   60   62 1    
   119   60  126 1    
   120   61  127 1    
   121   61  128 1    
   122   61  129 1    
   123   62   63 2    
   124   62   64 am   BACKBONE|DICT|INTERRES
   125   64   65 1    
   126   64  130 1    
   127   65   66 1    
   128   65   69 1    
   129   65  131 1    
   130   66   67 am   BACKBONE|DICT|INTERRES
   131   66   68 2    
   132   67  132 1    
   133   67  133 1    
   134   69   70 1    
   135   69  134 1    
   136   69  135 1    
   137   70   71 1    
   138   71  136 1    
   139   71  137 1    
@<TRIPOS>SUBSTRUCTURE
     1 UNK         1 GROUP             0       ****    0 ROOT    
