@<TRIPOS>MOLECULE
3R137
137   139    1
SMALL
USER_CHARGES


@<TRIPOS>ATOM
      1 CA         24.1820   -5.7756   -4.4507 C.3       0 UNK        -0.2020 
      2 C          24.6423   -5.0073   -3.2218 C.2       0 UNK         0.4855 
      3 O          23.8174   -4.4162   -2.5240 O.2       0 UNK        -0.5197 
      4 N          25.9551   -4.9962   -2.9567 N.am      1 UNK        -0.4892 
      5 CA         26.5969   -4.2482   -1.8705 C.3       1 UNK         0.0835 
      6 C6         28.1039   -4.5929   -1.7273 C.3       12 UNK        -0.0855 
      7 S7         29.0506   -4.6078   -3.2957 S.3       12 UNK        -0.2931 
      8 C8         30.7574   -4.4190   -2.6871 C.3       12 UNK         0.0378 
      9 C9         31.3329   -3.0445   -3.0033 C.ar      12 UNK        -0.0802 
     10 C10        32.4054   -2.9223   -3.8927 C.ar      12 UNK        -0.0944 
     11 C11        32.9607   -1.6701   -4.1776 C.ar      12 UNK        -0.0787 
     12 C12        32.4362   -0.5328   -3.5544 C.ar      12 UNK        -0.0862 
     13 C13        31.3710   -0.6411   -2.6535 C.ar      12 UNK        -0.0733 
     14 C14        30.8211   -1.8991   -2.3855 C.ar      12 UNK        -0.0832 
     15 C15        30.8518    0.5953   -1.9308 C.3       12 UNK         0.0240 
     16 S16        29.9271    1.7174   -3.0261 S.3       12 UNK        -0.2522 
     17 C17        28.3499    0.8288   -3.2552 C.3       12 UNK        -0.0967 
     18 CA         27.8703    0.8645   -4.7271 C.3       5 UNK         0.0660 
     19 N          27.0403   -0.2998   -5.0591 N.am      5 UNK        -0.4015 
     20 C          26.5845   -0.6251   -6.2787 C.2       4 UNK         0.4946 
     21 O          26.8063    0.0379   -7.2916 O.2       4 UNK        -0.5353 
     22 CA         25.7021   -1.8769   -6.3781 C.3       4 UNK         0.0277 
     23 CB         26.5466   -3.1614   -6.3354 C.3       4 UNK        -0.1981 
     24 N          24.7110   -1.8906   -5.3029 N.am      4 UNK        -0.4209 
     25 C          23.5568   -1.2086   -5.3389 C.2       3 UNK         0.4942 
     26 O          23.1503   -0.6045   -6.3313 O.2       3 UNK        -0.5208 
     27 CA         22.7196   -1.1685   -4.0484 C.3       3 UNK         0.0250 
     28 CB         21.6254   -2.2474   -4.0772 C.3       3 UNK        -0.1990 
     29 N          23.5288   -1.3129   -2.8342 N.am      3 UNK        -0.4232 
     30 C          24.3654   -0.3680   -2.3763 C.2       2 UNK         0.4993 
     31 O          24.5224    0.7246   -2.9212 O.2       2 UNK        -0.5286 
     32 CA         25.2151   -0.7164   -1.1392 C.3       2 UNK         0.0209 
     33 CB         24.4618   -0.3533    0.1500 C.3       2 UNK        -0.1931 
     34 N          25.6348   -2.1220   -1.0836 N.am      2 UNK        -0.4546 
     35 C          26.3518   -2.7358   -2.0351 C.2       1 UNK         0.5154 
     36 O          26.7536   -2.1631   -3.0480 O.2       1 UNK        -0.5181 
     37 C          27.2030    2.2125   -5.0834 C.2       5 UNK         0.5014 
     38 O          27.9096    3.1653   -5.4130 O.2       5 UNK        -0.5248 
     39 N          25.8624    2.2590   -5.1057 N.am      6 UNK        -0.4434 
     40 CA         25.0631    3.3604   -5.6571 C.3       6 UNK         0.0363 
     41 CB         23.5722    3.0439   -5.4609 C.3       6 UNK        -0.1936 
     42 C          25.3545    3.6765   -7.1420 C.2       6 UNK         0.5081 
     43 O          25.1458    4.8145   -7.5626 O.2       6 UNK        -0.5248 
     44 N          25.8554    2.6876   -7.8955 N.am      7 UNK        -0.4718 
     45 CA         26.3569    2.8137   -9.2660 C.3       7 UNK         0.0273 
     46 CB         25.5733    1.8400  -10.1652 C.3       7 UNK        -0.1935 
     47 C          27.8772    2.5501   -9.3244 C.2       7 UNK         0.5018 
     48 O          28.3863    2.1602  -10.3761 O.2       7 UNK        -0.5186 
     49 N          28.5730    2.7382   -8.1909 N.am      8 UNK        -0.4240 
     50 CA         30.0078    2.5327   -7.9454 C.3       8 UNK         0.0235 
     51 CB         30.8624    3.4506   -8.8455 C.3       8 UNK        -0.2000 
     52 C          30.4824    1.0669   -8.0064 C.2       8 UNK         0.4941 
     53 O          31.6886    0.8368   -7.9330 O.2       8 UNK        -0.5273 
     54 N          29.5594    0.1019   -8.1530 N.am      9 UNK        -0.4262 
     55 CA         29.7699   -1.3549   -8.2027 C.3       9 UNK         0.0264 
     56 CB         30.1068   -1.8810   -6.7900 C.3       9 UNK        -0.1955 
     57 C          30.7706   -1.8521   -9.2740 C.2       9 UNK         0.5031 
     58 O          31.2048   -3.0030   -9.2058 O.2       9 UNK        -0.5390 
     59 N          31.1098   -0.9868  -10.2433 N.am      10 UNK        -0.4204 
     60 CA         32.1852   -1.1233  -11.2339 C.3       10 UNK         0.0237 
     61 CB         31.8838   -2.2627  -12.2318 C.3       10 UNK        -0.1985 
     62 C          33.5893   -1.2290  -10.5947 C.2       10 UNK         0.4970 
     63 O          34.4531   -1.9248  -11.1330 O.2       10 UNK        -0.4914 
     64 N          33.8005   -0.5311   -9.4722 N.am      11 UNK        -0.4285 
     65 CA         35.0453   -0.5200   -8.6909 C.3       11 UNK         0.1007 
     66 C          35.2687    0.8457   -7.9805 C.2       11 UNK         0.5703 
     67 N          36.2063    0.9320   -7.0453 N.am      11 UNK        -0.7361 
     68 O          34.6466    1.8544   -8.3083 O.2       11 UNK        -0.4986 
     69 C69        35.1951   -1.7782   -7.7794 C.3       12 UNK        -0.0947 
     70 S70        33.7126   -2.1741   -6.7933 S.3       12 UNK        -0.2240 
     71 C71        34.1384   -1.5509   -5.1396 C.3       12 UNK         0.0194 
     72 H72        25.0103   -6.2744   -4.9536 H         1 UNK         0.0906 
     73 H73        23.4516   -6.5328   -4.1672 H         1 UNK         0.0906 
     74 H74        23.7116   -5.0972   -5.1620 H         1 UNK         0.0906 
     75 H75        26.5996   -5.4637   -3.5796 H         1 UNK         0.3140 
     76 H76        26.1088   -4.5607   -0.9446 H         1 UNK         0.1085 
     77 H77        28.1987   -5.5873   -1.2882 H         1 UNK         0.0836 
     78 H78        28.5812   -3.9167   -1.0154 H         1 UNK         0.0836 
     79 H79        31.3673   -5.2002   -3.1435 H         1 UNK         0.0731 
     80 H80        30.8051   -4.5955   -1.6117 H         1 UNK         0.0731 
     81 H81        32.8124   -3.8033   -4.3702 H         1 UNK         0.1312 
     82 H82        32.8620    0.4399   -3.7602 H         1 UNK         0.1406 
     83 H83        29.9992   -1.9916   -1.6893 H         1 UNK         0.1631 
     84 H84        31.6990    1.1404   -1.5122 H         1 UNK         0.0717 
     85 H85        30.2227    0.3195   -1.0829 H         1 UNK         0.0717 
     86 H86        28.5014   -0.2040   -2.9407 H         1 UNK         0.0934 
     87 H87        27.5989    1.2399   -2.5783 H         1 UNK         0.0934 
     88 H88        28.7501    0.7757   -5.3676 H         1 UNK         0.0739 
     89 H89        26.8558   -0.9464   -4.2918 H         1 UNK         0.3093 
     90 H90        25.1861   -1.8481   -7.3405 H         1 UNK         0.0818 
     91 H91        27.1231   -3.2475   -5.4142 H         1 UNK         0.0819 
     92 H92        27.2556   -3.1875   -7.1631 H         1 UNK         0.0819 
     93 H93        25.9206   -4.0491   -6.4221 H         1 UNK         0.0819 
     94 H94        24.9960   -2.3136   -4.4296 H         1 UNK         0.3041 
     95 H95        22.2292   -0.1931   -4.0096 H         1 UNK         0.0784 
     96 H96        20.9677   -2.1099   -4.9366 H         1 UNK         0.0793 
     97 H97        22.0446   -3.2510   -4.1485 H         1 UNK         0.0793 
     98 H98        21.0023   -2.2061   -3.1837 H         1 UNK         0.0793 
     99 H99        23.4933   -2.2106   -2.3641 H         1 UNK         0.3024 
    100 H100       26.1193   -0.1068   -1.1876 H         1 UNK         0.1171 
    101 H101       25.0881   -0.4981    1.0305 H         1 UNK         0.0786 
    102 H102       24.1567    0.6943    0.1413 H         1 UNK         0.0786 
    103 H103       23.5602   -0.9543    0.2752 H         1 UNK         0.0786 
    104 H104       25.3066   -2.6602   -0.2941 H         1 UNK         0.2977 
    105 H105       25.3487    1.4748   -4.7186 H         1 UNK         0.3127 
    106 H106       25.3035    4.2564   -5.0814 H         1 UNK         0.0770 
    107 H107       23.2772    2.1462   -6.0054 H         1 UNK         0.0814 
    108 H108       22.9481    3.8633   -5.8200 H         1 UNK         0.0814 
    109 H109       23.3327    2.8916   -4.4082 H         1 UNK         0.0814 
    110 H110       26.0102    1.7760   -7.4709 H         1 UNK         0.2983 
    111 H111       26.2003    3.8279   -9.6388 H         1 UNK         0.0947 
    112 H112       25.8709    1.9399  -11.2097 H         1 UNK         0.0806 
    113 H113       24.5014    2.0321  -10.1163 H         1 UNK         0.0806 
    114 H114       25.7412    0.8023   -9.8734 H         1 UNK         0.0806 
    115 H115       28.0568    3.0385   -7.3687 H         1 UNK         0.3000 
    116 H116       30.1758    2.8456   -6.9137 H         1 UNK         0.0850 
    117 H117       31.9144    3.4105   -8.5587 H         1 UNK         0.0810 
    118 H118       30.5471    4.4908   -8.7651 H         1 UNK         0.0810 
    119 H119       30.8048    3.1610   -9.8948 H         1 UNK         0.0810 
    120 H120       28.5835    0.3829   -8.1718 H         1 UNK         0.3040 
    121 H121       28.8099   -1.7840   -8.4911 H         1 UNK         0.0766 
    122 H122       29.2960   -1.7003   -6.0875 H         1 UNK         0.0812 
    123 H123       30.9936   -1.3969   -6.3844 H         1 UNK         0.0812 
    124 H124       30.2910   -2.9558   -6.7876 H         1 UNK         0.0812 
    125 H125       30.6729   -0.0761  -10.2017 H         1 UNK         0.3205 
    126 H126       32.1892   -0.1902  -11.7991 H         1 UNK         0.0754 
    127 H127       32.6005   -2.2622  -13.0539 H         1 UNK         0.0769 
    128 H128       30.8913   -2.1550  -12.6692 H         1 UNK         0.0769 
    129 H129       31.9370   -3.2428  -11.7570 H         1 UNK         0.0769 
    130 H130       33.0497    0.0224   -9.0641 H         1 UNK         0.2981 
    131 H131       35.8648   -0.5542   -9.4108 H         1 UNK         0.0541 
    132 H132       36.3703    1.8223   -6.6025 H         1 UNK         0.3459 
    133 H133       36.7596    0.1323   -6.7833 H         1 UNK         0.3459 
    134 H134       36.0684   -1.7160   -7.1295 H         1 UNK         0.0612 
    135 H135       35.3808   -2.6449   -8.4151 H         1 UNK         0.0612 
    136 H136       34.9855   -2.1147   -4.7471 H         1 UNK         0.0624 
    137 H137       34.4605   -0.5123   -5.2246 H         1 UNK         0.0624 
@<TRIPOS>BOND
     1    1    2 1    
     2    1   72 1    
     3    1   73 1    
     4    1   74 1    
     5    2    3 2    
     6    2    4 am   BACKBONE|DICT|INTERRES
     7    4    5 1    
     8    4   75 1    
     9    5    6 1    
    10    5   35 1    
    11    5   76 1    
    12    6    7 1    
    13    6   77 1    
    14    6   78 1    
    15    7    8 1    
    16    8    9 1    
    17    8   79 1    
    18    8   80 1    
    19    9   10 ar   
    20    9   14 ar   
    21   10   11 ar   
    22   10   81 1    
    23   11   12 ar   
    24   11   71 1    
    25   12   13 ar   
    26   12   82 1    
    27   13   14 ar   
    28   13   15 1    
    29   14   83 1    
    30   15   16 1    
    31   15   84 1    
    32   15   85 1    
    33   16   17 1    
    34   17   18 1    
    35   17   86 1    
    36   17   87 1    
    37   18   19 1    
    38   18   37 1    
    39   18   88 1    
    40   19   20 am   BACKBONE|DICT|INTERRES
    41   19   89 1    
    42   20   21 2    
    43   20   22 1    
    44   22   23 1    
    45   22   24 1    
    46   22   90 1    
    47   23   91 1    
    48   23   92 1    
    49   23   93 1    
    50   24   25 am   BACKBONE|DICT|INTERRES
    51   24   94 1    
    52   25   26 2    
    53   25   27 1    
    54   27   28 1    
    55   27   29 1    
    56   27   95 1    
    57   28   96 1    
    58   28   97 1    
    59   28   98 1    
    60   29   30 am   BACKBONE|DICT|INTERRES
    61   29   99 1    
    62   30   31 2    
    63   30   32 1    
    64   32   33 1    
    65   32   34 1    
    66   32  100 1    
    67   33  101 1    
    68   33  102 1    
    69   33  103 1    
    70   34   35 am   BACKBONE|DICT|INTERRES
    71   34  104 1    
    72   35   36 2    
    73   37   38 2    
    74   37   39 am   BACKBONE|DICT|INTERRES
    75   39   40 1    
    76   39  105 1    
    77   40   41 1    
    78   40   42 1    
    79   40  106 1    
    80   41  107 1    
    81   41  108 1    
    82   41  109 1    
    83   42   43 2    
    84   42   44 am   BACKBONE|DICT|INTERRES
    85   44   45 1    
    86   44  110 1    
    87   45   46 1    
    88   45   47 1    
    89   45  111 1    
    90   46  112 1    
    91   46  113 1    
    92   46  114 1    
    93   47   48 2    
    94   47   49 am   BACKBONE|DICT|INTERRES
    95   49   50 1    
    96   49  115 1    
    97   50   51 1    
    98   50   52 1    
    99   50  116 1    
   100   51  117 1    
   101   51  118 1    
   102   51  119 1    
   103   52   53 2    
   104   52   54 am   BACKBONE|DICT|INTERRES
   105   54   55 1    
   106   54  120 1    
   107   55   56 1    
   108   55   57 1    
   109   55  121 1    
   110   56  122 1    
   111   56  123 1    
   112   56  124 1    
   113   57   58 2    
   114   57   59 am   BACKBONE|DICT|INTERRES
   115   59   60 1    
   116   59  125 1    
   117   60   61 1    
   118   60   62 1    
   119   60  126 1    
   120   61  127 1    
   121   61  128 1    
   122   61  129 1    
   123   62   63 2    
   124   62   64 am   BACKBONE|DICT|INTERRES
   125   64   65 1    
   126   64  130 1    
   127   65   66 1    
   128   65   69 1    
   129   65  131 1    
   130   66   67 am   BACKBONE|DICT|INTERRES
   131   66   68 2    
   132   67  132 1    
   133   67  133 1    
   134   69   70 1    
   135   69  134 1    
   136   69  135 1    
   137   70   71 1    
   138   71  136 1    
   139   71  137 1    
@<TRIPOS>SUBSTRUCTURE
     1 UNK         1 GROUP             0       ****    0 ROOT    
