@<TRIPOS>MOLECULE
3R137
137   139    1
SMALL
USER_CHARGES


@<TRIPOS>ATOM
      1 CA         30.6407   -5.2787   -5.1573 C.3       0 UNK        -0.2020 
      2 C          29.3880   -5.6336   -4.3725 C.2       0 UNK         0.4855 
      3 O          28.9790   -6.7948   -4.3562 O.2       0 UNK        -0.5197 
      4 N          28.7695   -4.6371   -3.7351 N.am      1 UNK        -0.4892 
      5 CA         27.5036   -4.7365   -3.0120 C.3       1 UNK         0.0835 
      6 C6         27.6434   -5.4407   -1.6290 C.3       12 UNK        -0.0855 
      7 S7         28.2548   -4.4285   -0.2324 S.3       12 UNK        -0.2931 
      8 C8         30.0664   -4.4864   -0.4444 C.3       12 UNK         0.0378 
      9 C9         30.6530   -3.2435   -1.1134 C.ar      12 UNK        -0.0802 
     10 C10        31.7336   -3.3798   -1.9911 C.ar      12 UNK        -0.0944 
     11 C11        32.3385   -2.2531   -2.5560 C.ar      12 UNK        -0.0787 
     12 C12        31.8531   -0.9807   -2.2462 C.ar      12 UNK        -0.0862 
     13 C13        30.7663   -0.8251   -1.3820 C.ar      12 UNK        -0.0733 
     14 C14        30.1774   -1.9595   -0.8131 C.ar      12 UNK        -0.0832 
     15 C15        30.2422    0.5668   -1.0416 C.3       12 UNK         0.0240 
     16 S16        29.8379    1.5654   -2.5152 S.3       12 UNK        -0.2522 
     17 C17        28.4885    0.5892   -3.2528 C.3       12 UNK        -0.0967 
     18 CA         28.2937    0.8779   -4.7628 C.3       5 UNK         0.0660 
     19 N          27.6469   -0.2457   -5.4393 N.am      5 UNK        -0.4015 
     20 C          27.4723   -0.3735   -6.7613 C.2       4 UNK         0.4946 
     21 O          27.8996    0.4179   -7.6011 O.2       4 UNK        -0.5353 
     22 CA         26.6396   -1.5756   -7.2285 C.3       4 UNK         0.0277 
     23 CB         27.5134   -2.8360   -7.3347 C.3       4 UNK        -0.1981 
     24 N          25.4897   -1.8279   -6.3566 N.am      4 UNK        -0.4209 
     25 C          24.4444   -0.9966   -6.2277 C.2       3 UNK         0.4942 
     26 O          24.3234    0.0573   -6.8515 O.2       3 UNK        -0.5208 
     27 CA         23.3743   -1.3870   -5.1961 C.3       3 UNK         0.0250 
     28 CB         22.4239   -2.4501   -5.7697 C.3       3 UNK        -0.1990 
     29 N          23.9512   -1.8639   -3.9366 N.am      3 UNK        -0.4232 
     30 C          24.6780   -1.1038   -3.1054 C.2       2 UNK         0.4993 
     31 O          24.9348    0.0834   -3.3041 O.2       2 UNK        -0.5286 
     32 CA         25.2620   -1.8008   -1.8675 C.3       2 UNK         0.0209 
     33 CB         24.2023   -1.9283   -0.7615 C.3       2 UNK        -0.1931 
     34 N          25.8541   -3.1165   -2.1402 N.am      2 UNK        -0.4546 
     35 C          26.8624   -3.3344   -2.9967 C.2       1 UNK         0.5154 
     36 O          27.2943   -2.4690   -3.7634 O.2       1 UNK        -0.5181 
     37 C          27.5313    2.1965   -5.0026 C.2       5 UNK         0.5014 
     38 O          28.1440    3.1818   -5.4157 O.2       5 UNK        -0.5248 
     39 N          26.2079    2.1825   -4.7758 N.am      6 UNK        -0.4434 
     40 CA         25.3113    3.3248   -4.9773 C.3       6 UNK         0.0363 
     41 CB         23.9103    2.9819   -4.4465 C.3       6 UNK        -0.1936 
     42 C          25.2339    3.7897   -6.4410 C.2       6 UNK         0.5081 
     43 O          25.2330    4.9950   -6.6928 O.2       6 UNK        -0.5248 
     44 N          25.1883    2.8339   -7.3786 N.am      7 UNK        -0.4718 
     45 CA         25.1956    3.0933   -8.8210 C.3       7 UNK         0.0273 
     46 CB         24.6906    1.8384   -9.5522 C.3       7 UNK        -0.1935 
     47 C          26.5758    3.5004   -9.3698 C.2       7 UNK         0.5018 
     48 O          26.6366    4.0360  -10.4771 O.2       7 UNK        -0.5186 
     49 N          27.6464    3.2032   -8.6157 N.am      8 UNK        -0.4240 
     50 CA         29.0622    3.2685   -9.0032 C.3       8 UNK         0.0235 
     51 CB         29.5149    4.7273   -9.2230 C.3       8 UNK        -0.2000 
     52 C          29.3690    2.3447  -10.2005 C.2       8 UNK         0.4941 
     53 O          30.1143    2.7225  -11.1066 O.2       8 UNK        -0.5273 
     54 N          28.7536    1.1550  -10.1897 N.am      9 UNK        -0.4262 
     55 CA         28.7976    0.1740  -11.2744 C.3       9 UNK         0.0264 
     56 CB         27.5069   -0.6608  -11.2434 C.3       9 UNK        -0.1955 
     57 C          30.0266   -0.7446  -11.2059 C.2       9 UNK         0.5031 
     58 O          30.4053   -1.3122  -12.2319 O.2       9 UNK        -0.5390 
     59 N          30.6197   -0.8889  -10.0165 N.am      10 UNK        -0.4204 
     60 CA         31.7913   -1.7154   -9.7488 C.3       10 UNK         0.0237 
     61 CB         31.3619   -3.1813   -9.5407 C.3       10 UNK        -0.1985 
     62 C          32.5043   -1.1750   -8.5060 C.2       10 UNK         0.4970 
     63 O          31.8800   -0.4605   -7.7171 O.2       10 UNK        -0.4914 
     64 N          33.7784   -1.5663   -8.3630 N.am      11 UNK        -0.4285 
     65 CA         34.6890   -1.2985   -7.2353 C.3       11 UNK         0.1007 
     66 C          34.7681    0.1906   -6.7731 C.2       11 UNK         0.5703 
     67 N          35.0706    0.4635   -5.5104 N.am      11 UNK        -0.7361 
     68 O          34.6372    1.1106   -7.5788 O.2       11 UNK        -0.4986 
     69 C69        34.5726   -2.3725   -6.1095 C.3       12 UNK        -0.0947 
     70 S70        32.9788   -2.3969   -5.2224 S.3       12 UNK        -0.2240 
     71 C71        33.5251   -2.3997   -3.4923 C.3       12 UNK         0.0194 
     72 H72        31.5321   -5.5198   -4.5791 H         1 UNK         0.0906 
     73 H73        30.6760   -5.8381   -6.0918 H         1 UNK         0.0906 
     74 H74        30.6657   -4.2177   -5.4037 H         1 UNK         0.0906 
     75 H75        29.1093   -3.6855   -3.8103 H         1 UNK         0.3140 
     76 H76        26.8366   -5.3464   -3.6256 H         1 UNK         0.1085 
     77 H77        28.2638   -6.3337   -1.7176 H         1 UNK         0.0836 
     78 H78        26.6651   -5.8203   -1.3301 H         1 UNK         0.0836 
     79 H79        30.3392   -5.3873   -0.9962 H         1 UNK         0.0731 
     80 H80        30.5223   -4.5838    0.5416 H         1 UNK         0.0731 
     81 H81        32.1184   -4.3636   -2.2229 H         1 UNK         0.1312 
     82 H82        32.3183   -0.1084   -2.6851 H         1 UNK         0.1406 
     83 H83        29.3530   -1.8413   -0.1235 H         1 UNK         0.1631 
     84 H84        30.9999    1.0929   -0.4595 H         1 UNK         0.0717 
     85 H85        29.3555    0.5054   -0.4087 H         1 UNK         0.0717 
     86 H86        28.7453   -0.4614   -3.1199 H         1 UNK         0.0934 
     87 H87        27.5700    0.7441   -2.6837 H         1 UNK         0.0934 
     88 H88        29.2792    0.9784   -5.2238 H         1 UNK         0.0739 
     89 H89        27.3158   -0.9968   -4.8368 H         1 UNK         0.3093 
     90 H90        26.2532   -1.3424   -8.2225 H         1 UNK         0.0818 
     91 H91        27.9210   -3.1329   -6.3678 H         1 UNK         0.0819 
     92 H92        26.9487   -3.6783   -7.7344 H         1 UNK         0.0819 
     93 H93        28.3571   -2.6661   -8.0049 H         1 UNK         0.0819 
     94 H94        25.5285   -2.6503   -5.7731 H         1 UNK         0.3041 
     95 H95        22.7889   -0.4915   -4.9760 H         1 UNK         0.0784 
     96 H96        21.9737   -2.1064   -6.7022 H         1 UNK         0.0793 
     97 H97        22.9404   -3.3867   -5.9830 H         1 UNK         0.0793 
     98 H98        21.6081   -2.6660   -5.0794 H         1 UNK         0.0793 
     99 H99        23.7981   -2.8317   -3.6930 H         1 UNK         0.3024 
    100 H100       26.0641   -1.1604   -1.4932 H         1 UNK         0.1171 
    101 H101       24.6387   -2.3071    0.1630 H         1 UNK         0.0786 
    102 H102       23.7578   -0.9584   -0.5332 H         1 UNK         0.0786 
    103 H103       23.3921   -2.5989   -1.0502 H         1 UNK         0.0786 
    104 H104       25.5664   -3.8725   -1.5357 H         1 UNK         0.2977 
    105 H105       25.7814    1.3385   -4.3962 H         1 UNK         0.3127 
    106 H106       25.7035    4.1568   -4.3888 H         1 UNK         0.0770 
    107 H107       23.4816    2.1245   -4.9671 H         1 UNK         0.0814 
    108 H108       23.2255    3.8209   -4.5767 H         1 UNK         0.0814 
    109 H109       23.9365    2.7468   -3.3824 H         1 UNK         0.0814 
    110 H110       25.1187    1.8613   -7.0895 H         1 UNK         0.2983 
    111 H111       24.5060    3.9140   -9.0305 H         1 UNK         0.0947 
    112 H112       24.6636    1.9947  -10.6315 H         1 UNK         0.0806 
    113 H113       23.6806    1.5757   -9.2372 H         1 UNK         0.0806 
    114 H114       25.3335    0.9781   -9.3614 H         1 UNK         0.0806 
    115 H115       27.4703    2.7460   -7.7294 H         1 UNK         0.3000 
    116 H116       29.6256    2.8695   -8.1578 H         1 UNK         0.0850 
    117 H117       30.5922    4.7803   -9.3840 H         1 UNK         0.0810 
    118 H118       29.2859    5.3467   -8.3558 H         1 UNK         0.0810 
    119 H119       29.0347    5.1758  -10.0931 H         1 UNK         0.0810 
    120 H120       28.2302    0.9025   -9.3525 H         1 UNK         0.3040 
    121 H121       28.8351    0.7052  -12.2281 H         1 UNK         0.0766 
    122 H122       26.6232   -0.0301  -11.3390 H         1 UNK         0.0812 
    123 H123       27.4182   -1.2309  -10.3186 H         1 UNK         0.0812 
    124 H124       27.4848   -1.3744  -12.0683 H         1 UNK         0.0812 
    125 H125       30.2946   -0.3513   -9.2212 H         1 UNK         0.3205 
    126 H126       32.4774   -1.6482  -10.5961 H         1 UNK         0.0754 
    127 H127       32.2248   -3.8231   -9.3592 H         1 UNK         0.0769 
    128 H128       30.8471   -3.5753  -10.4171 H         1 UNK         0.0769 
    129 H129       30.6939   -3.2858   -8.6849 H         1 UNK         0.0769 
    130 H130       34.1790   -2.1298   -9.0982 H         1 UNK         0.2981 
    131 H131       35.6754   -1.4553   -7.6730 H         1 UNK         0.0541 
    132 H132       35.2024   -0.2757   -4.8406 H         1 UNK         0.3459 
    133 H133       35.1508    1.4261   -5.2235 H         1 UNK         0.3459 
    134 H134       34.7090   -3.3630   -6.5456 H         1 UNK         0.0612 
    135 H135       35.3921   -2.2648   -5.3977 H         1 UNK         0.0612 
    136 H136       34.2276   -1.5822   -3.3256 H         1 UNK         0.0624 
    137 H137       34.0660   -3.3244   -3.2852 H         1 UNK         0.0624 
@<TRIPOS>BOND
     1    1    2 1    
     2    1   72 1    
     3    1   73 1    
     4    1   74 1    
     5    2    3 2    
     6    2    4 am   BACKBONE|DICT|INTERRES
     7    4    5 1    
     8    4   75 1    
     9    5    6 1    
    10    5   35 1    
    11    5   76 1    
    12    6    7 1    
    13    6   77 1    
    14    6   78 1    
    15    7    8 1    
    16    8    9 1    
    17    8   79 1    
    18    8   80 1    
    19    9   10 ar   
    20    9   14 ar   
    21   10   11 ar   
    22   10   81 1    
    23   11   12 ar   
    24   11   71 1    
    25   12   13 ar   
    26   12   82 1    
    27   13   14 ar   
    28   13   15 1    
    29   14   83 1    
    30   15   16 1    
    31   15   84 1    
    32   15   85 1    
    33   16   17 1    
    34   17   18 1    
    35   17   86 1    
    36   17   87 1    
    37   18   19 1    
    38   18   37 1    
    39   18   88 1    
    40   19   20 am   BACKBONE|DICT|INTERRES
    41   19   89 1    
    42   20   21 2    
    43   20   22 1    
    44   22   23 1    
    45   22   24 1    
    46   22   90 1    
    47   23   91 1    
    48   23   92 1    
    49   23   93 1    
    50   24   25 am   BACKBONE|DICT|INTERRES
    51   24   94 1    
    52   25   26 2    
    53   25   27 1    
    54   27   28 1    
    55   27   29 1    
    56   27   95 1    
    57   28   96 1    
    58   28   97 1    
    59   28   98 1    
    60   29   30 am   BACKBONE|DICT|INTERRES
    61   29   99 1    
    62   30   31 2    
    63   30   32 1    
    64   32   33 1    
    65   32   34 1    
    66   32  100 1    
    67   33  101 1    
    68   33  102 1    
    69   33  103 1    
    70   34   35 am   BACKBONE|DICT|INTERRES
    71   34  104 1    
    72   35   36 2    
    73   37   38 2    
    74   37   39 am   BACKBONE|DICT|INTERRES
    75   39   40 1    
    76   39  105 1    
    77   40   41 1    
    78   40   42 1    
    79   40  106 1    
    80   41  107 1    
    81   41  108 1    
    82   41  109 1    
    83   42   43 2    
    84   42   44 am   BACKBONE|DICT|INTERRES
    85   44   45 1    
    86   44  110 1    
    87   45   46 1    
    88   45   47 1    
    89   45  111 1    
    90   46  112 1    
    91   46  113 1    
    92   46  114 1    
    93   47   48 2    
    94   47   49 am   BACKBONE|DICT|INTERRES
    95   49   50 1    
    96   49  115 1    
    97   50   51 1    
    98   50   52 1    
    99   50  116 1    
   100   51  117 1    
   101   51  118 1    
   102   51  119 1    
   103   52   53 2    
   104   52   54 am   BACKBONE|DICT|INTERRES
   105   54   55 1    
   106   54  120 1    
   107   55   56 1    
   108   55   57 1    
   109   55  121 1    
   110   56  122 1    
   111   56  123 1    
   112   56  124 1    
   113   57   58 2    
   114   57   59 am   BACKBONE|DICT|INTERRES
   115   59   60 1    
   116   59  125 1    
   117   60   61 1    
   118   60   62 1    
   119   60  126 1    
   120   61  127 1    
   121   61  128 1    
   122   61  129 1    
   123   62   63 2    
   124   62   64 am   BACKBONE|DICT|INTERRES
   125   64   65 1    
   126   64  130 1    
   127   65   66 1    
   128   65   69 1    
   129   65  131 1    
   130   66   67 am   BACKBONE|DICT|INTERRES
   131   66   68 2    
   132   67  132 1    
   133   67  133 1    
   134   69   70 1    
   135   69  134 1    
   136   69  135 1    
   137   70   71 1    
   138   71  136 1    
   139   71  137 1    
@<TRIPOS>SUBSTRUCTURE
     1 UNK         1 GROUP             0       ****    0 ROOT    
