@<TRIPOS>MOLECULE
3R137
137   139    1
SMALL
USER_CHARGES


@<TRIPOS>ATOM
      1 CA         29.0093   -5.7261   -4.5686 C.3       0 UNK        -0.2020 
      2 C          27.9787   -5.2110   -3.5772 C.2       0 UNK         0.4855 
      3 O          26.7886   -5.4923   -3.7247 O.2       0 UNK        -0.5197 
      4 N          28.4290   -4.4628   -2.5634 N.am      1 UNK        -0.4892 
      5 CA         27.5790   -3.8694   -1.5250 C.3       1 UNK         0.0835 
      6 C6         28.3562   -3.4996   -0.2253 C.3       12 UNK        -0.0855 
      7 S7         29.7317   -4.6324    0.2040 S.3       12 UNK        -0.2931 
      8 C8         31.2004   -3.5532    0.0542 C.3       12 UNK         0.0378 
      9 C9         31.2962   -2.8872   -1.3128 C.ar      12 UNK        -0.0802 
     10 C10        31.7757   -3.5958   -2.4179 C.ar      12 UNK        -0.0944 
     11 C11        31.8083   -2.9947   -3.6799 C.ar      12 UNK        -0.0787 
     12 C12        31.3385   -1.6860   -3.8369 C.ar      12 UNK        -0.0862 
     13 C13        30.8718   -0.9609   -2.7364 C.ar      12 UNK        -0.0733 
     14 C14        30.8854   -1.5603   -1.4735 C.ar      12 UNK        -0.0832 
     15 C15        30.3435    0.4598   -2.9137 C.3       12 UNK         0.0240 
     16 S16        28.6874    0.6506   -2.1674 S.3       12 UNK        -0.2522 
     17 C17        27.8367    1.9066   -3.1820 C.3       12 UNK        -0.0967 
     18 CA         27.8344    1.6673   -4.7150 C.3       5 UNK         0.0660 
     19 N          27.5822    0.2747   -5.1043 N.am      5 UNK        -0.4015 
     20 C          27.6690   -0.1814   -6.3636 C.2       4 UNK         0.4946 
     21 O          27.9999    0.5132   -7.3261 O.2       4 UNK        -0.5353 
     22 CA         27.2760   -1.6429   -6.6048 C.3       4 UNK         0.0277 
     23 CB         28.4537   -2.5804   -6.2957 C.3       4 UNK        -0.1981 
     24 N          26.0951   -2.0226   -5.8259 N.am      4 UNK        -0.4209 
     25 C          24.8565   -1.5748   -6.0838 C.2       3 UNK         0.4942 
     26 O          24.5823   -0.8291   -7.0226 O.2       3 UNK        -0.5208 
     27 CA         23.7394   -1.9844   -5.1096 C.3       3 UNK         0.0250 
     28 CB         23.2378   -3.4025   -5.4245 C.3       3 UNK        -0.1990 
     29 N          24.1474   -1.9071   -3.7066 N.am      3 UNK        -0.4232 
     30 C          24.5351   -0.7847   -3.0845 C.2       2 UNK         0.4993 
     31 O          24.5366    0.3283   -3.6109 O.2       2 UNK        -0.5286 
     32 CA         25.0636   -0.9366   -1.6476 C.3       2 UNK         0.0209 
     33 CB         23.9178   -0.7815   -0.6352 C.3       2 UNK        -0.1931 
     34 N          25.7890   -2.1884   -1.3803 N.am      2 UNK        -0.4546 
     35 C          26.8406   -2.6344   -2.0842 C.2       1 UNK         0.5154 
     36 O          27.2409   -2.0924   -3.1187 O.2       1 UNK        -0.5181 
     37 C          26.8645    2.6467   -5.4085 C.2       5 UNK         0.5014 
     38 O          27.2961    3.7103   -5.8535 O.2       5 UNK        -0.5248 
     39 N          25.5834    2.2633   -5.4991 N.am      6 UNK        -0.4434 
     40 CA         24.5415    3.0180   -6.1903 C.3       6 UNK         0.0363 
     41 CB         23.1600    2.4937   -5.7644 C.3       6 UNK        -0.1936 
     42 C          24.6890    2.9811   -7.7207 C.2       6 UNK         0.5081 
     43 O          24.6402    4.0370   -8.3526 O.2       6 UNK        -0.5248 
     44 N          24.8197    1.7765   -8.2952 N.am      7 UNK        -0.4718 
     45 CA         24.7704    1.5659   -9.7444 C.3       7 UNK         0.0273 
     46 CB         24.3943    0.1060  -10.0458 C.3       7 UNK        -0.1935 
     47 C          26.0664    1.9386  -10.4773 C.2       7 UNK         0.5018 
     48 O          25.9886    2.5389  -11.5506 O.2       7 UNK        -0.5186 
     49 N          27.2190    1.5439   -9.9219 N.am      8 UNK        -0.4240 
     50 CA         28.5231    1.6469  -10.5834 C.3       8 UNK         0.0235 
     51 CB         29.1349    0.2399  -10.6961 C.3       8 UNK        -0.2000 
     52 C          29.4903    2.5872   -9.8542 C.2       8 UNK         0.4941 
     53 O          30.3196    3.2101  -10.5178 O.2       8 UNK        -0.5273 
     54 N          29.3949    2.6502   -8.5171 N.am      9 UNK        -0.4262 
     55 CA         30.2998    3.3581   -7.5982 C.3       9 UNK         0.0264 
     56 CB         30.2758    4.8827   -7.8392 C.3       9 UNK        -0.1955 
     57 C          31.7274    2.7706   -7.5781 C.2       9 UNK         0.5031 
     58 O          32.6739    3.4681   -7.2087 O.2       9 UNK        -0.5390 
     59 N          31.8525    1.4944   -7.9579 N.am      10 UNK        -0.4204 
     60 CA         33.0777    0.7093   -8.0484 C.3       10 UNK         0.0237 
     61 CB         33.9194    1.1675   -9.2561 C.3       10 UNK        -0.1985 
     62 C          32.6738   -0.7629   -8.1904 C.2       10 UNK         0.4970 
     63 O          31.5151   -1.0476   -8.5060 O.2       10 UNK        -0.4914 
     64 N          33.6318   -1.6665   -7.9638 N.am      11 UNK        -0.4285 
     65 CA         33.4320   -3.1241   -8.0504 C.3       11 UNK         0.1007 
     66 C          33.6740   -3.7189   -9.4680 C.2       11 UNK         0.5703 
     67 N          34.0713   -2.9337  -10.4626 N.am      11 UNK        -0.7361 
     68 O          33.4851   -4.9155   -9.6736 O.2       11 UNK        -0.4986 
     69 C69        34.2358   -3.8911   -6.9630 C.3       12 UNK        -0.0947 
     70 S70        34.0297   -3.2055   -5.2846 S.3       12 UNK        -0.2240 
     71 C71        32.3443   -3.7528   -4.8819 C.3       12 UNK         0.0194 
     72 H72        28.5477   -5.9171   -5.5370 H         1 UNK         0.0906 
     73 H73        29.8071   -5.0011   -4.7151 H         1 UNK         0.0906 
     74 H74        29.4466   -6.6572   -4.2096 H         1 UNK         0.0906 
     75 H75        29.4093   -4.2247   -2.4972 H         1 UNK         0.3140 
     76 H76        26.8238   -4.6131   -1.2604 H         1 UNK         0.1085 
     77 H77        27.6629   -3.5008    0.6174 H         1 UNK         0.0836 
     78 H78        28.7322   -2.4782   -0.2631 H         1 UNK         0.0836 
     79 H79        32.0970   -4.1483    0.2341 H         1 UNK         0.0731 
     80 H80        31.1721   -2.8019    0.8450 H         1 UNK         0.0731 
     81 H81        32.1163   -4.6152   -2.2950 H         1 UNK         0.1312 
     82 H82        31.3475   -1.2321   -4.8187 H         1 UNK         0.1406 
     83 H83        30.5292   -1.0010   -0.6190 H         1 UNK         0.1631 
     84 H84        30.3173    0.7112   -3.9723 H         1 UNK         0.0717 
     85 H85        31.0311    1.1643   -2.4444 H         1 UNK         0.0717 
     86 H86        26.8122    1.9556   -2.8068 H         1 UNK         0.0934 
     87 H87        28.2795    2.8791   -2.9585 H         1 UNK         0.0934 
     88 H88        28.8288    1.9115   -5.0856 H         1 UNK         0.0739 
     89 H89        27.3472   -0.3754   -4.3604 H         1 UNK         0.3093 
     90 H90        27.0319   -1.7479   -7.6643 H         1 UNK         0.0818 
     91 H91        28.7457   -2.5381   -5.2460 H         1 UNK         0.0819 
     92 H92        28.2061   -3.6132   -6.5376 H         1 UNK         0.0819 
     93 H93        29.3304   -2.3110   -6.8871 H         1 UNK         0.0819 
     94 H94        26.2622   -2.5414   -4.9717 H         1 UNK         0.3041 
     95 H95        22.9094   -1.2886   -5.2505 H         1 UNK         0.0784 
     96 H96        22.9173   -3.4801   -6.4645 H         1 UNK         0.0793 
     97 H97        24.0147   -4.1519   -5.2655 H         1 UNK         0.0793 
     98 H98        22.3823   -3.6680   -4.8031 H         1 UNK         0.0793 
     99 H99        24.1957   -2.7754   -3.1939 H         1 UNK         0.3024 
    100 H100       25.7703   -0.1195   -1.4878 H         1 UNK         0.1171 
    101 H101       24.2921   -0.7571    0.3885 H         1 UNK         0.0786 
    102 H102       23.3745    0.1502   -0.8003 H         1 UNK         0.0786 
    103 H103       23.1975   -1.5970   -0.7117 H         1 UNK         0.0786 
    104 H104       25.5157   -2.6911   -0.5479 H         1 UNK         0.2977 
    105 H105       25.2930    1.4067   -5.0333 H         1 UNK         0.3127 
    106 H106       24.6147    4.0613   -5.8752 H         1 UNK         0.0770 
    107 H107       23.0342    1.4380   -6.0088 H         1 UNK         0.0814 
    108 H108       22.3613    3.0436   -6.2637 H         1 UNK         0.0814 
    109 H109       23.0092    2.6052   -4.6904 H         1 UNK         0.0814 
    110 H110       24.8295    0.9409   -7.7141 H         1 UNK         0.2983 
    111 H111       23.9761    2.1972  -10.1499 H         1 UNK         0.0947 
    112 H112       24.2999   -0.0599  -11.1198 H         1 UNK         0.0806 
    113 H113       23.4396   -0.1598   -9.5917 H         1 UNK         0.0806 
    114 H114       25.1467   -0.5906   -9.6736 H         1 UNK         0.0806 
    115 H115       27.2036    1.0893   -9.0134 H         1 UNK         0.3000 
    116 H116       28.4110    2.0388  -11.5966 H         1 UNK         0.0850 
    117 H117       30.1324    0.2762  -11.1367 H         1 UNK         0.0810 
    118 H118       28.5248   -0.4049  -11.3286 H         1 UNK         0.0810 
    119 H119       29.2257   -0.2414   -9.7218 H         1 UNK         0.0810 
    120 H120       28.7193    2.0353   -8.0667 H         1 UNK         0.3040 
    121 H121       29.9035    3.1911   -6.5986 H         1 UNK         0.0766 
    122 H122       29.2549    5.2650   -7.8398 H         1 UNK         0.0812 
    123 H123       30.7397    5.1542   -8.7876 H         1 UNK         0.0812 
    124 H124       30.8166    5.4102   -7.0528 H         1 UNK         0.0812 
    125 H125       31.0228    0.9682   -8.2086 H         1 UNK         0.3205 
    126 H126       33.6467    0.8313   -7.1245 H         1 UNK         0.0754 
    127 H127       34.8336    0.5802   -9.3489 H         1 UNK         0.0769 
    128 H128       34.2205    2.2108   -9.1606 H         1 UNK         0.0769 
    129 H129       33.3664    1.0664  -10.1912 H         1 UNK         0.0769 
    130 H130       34.5607   -1.3604   -7.7143 H         1 UNK         0.2981 
    131 H131       32.3781   -3.3282   -7.8583 H         1 UNK         0.0541 
    132 H132       34.2201   -1.9498  -10.3104 H         1 UNK         0.3459 
    133 H133       34.2186   -3.3323  -11.3764 H         1 UNK         0.3459 
    134 H134       33.9495   -4.9443   -6.9420 H         1 UNK         0.0612 
    135 H135       35.3014   -3.8693   -7.1976 H         1 UNK         0.0612 
    136 H136       31.6792   -3.5843   -5.7287 H         1 UNK         0.0624 
    137 H137       32.3504   -4.8281   -4.6973 H         1 UNK         0.0624 
@<TRIPOS>BOND
     1    1    2 1    
     2    1   72 1    
     3    1   73 1    
     4    1   74 1    
     5    2    3 2    
     6    2    4 am   BACKBONE|DICT|INTERRES
     7    4    5 1    
     8    4   75 1    
     9    5    6 1    
    10    5   35 1    
    11    5   76 1    
    12    6    7 1    
    13    6   77 1    
    14    6   78 1    
    15    7    8 1    
    16    8    9 1    
    17    8   79 1    
    18    8   80 1    
    19    9   10 ar   
    20    9   14 ar   
    21   10   11 ar   
    22   10   81 1    
    23   11   12 ar   
    24   11   71 1    
    25   12   13 ar   
    26   12   82 1    
    27   13   14 ar   
    28   13   15 1    
    29   14   83 1    
    30   15   16 1    
    31   15   84 1    
    32   15   85 1    
    33   16   17 1    
    34   17   18 1    
    35   17   86 1    
    36   17   87 1    
    37   18   19 1    
    38   18   37 1    
    39   18   88 1    
    40   19   20 am   BACKBONE|DICT|INTERRES
    41   19   89 1    
    42   20   21 2    
    43   20   22 1    
    44   22   23 1    
    45   22   24 1    
    46   22   90 1    
    47   23   91 1    
    48   23   92 1    
    49   23   93 1    
    50   24   25 am   BACKBONE|DICT|INTERRES
    51   24   94 1    
    52   25   26 2    
    53   25   27 1    
    54   27   28 1    
    55   27   29 1    
    56   27   95 1    
    57   28   96 1    
    58   28   97 1    
    59   28   98 1    
    60   29   30 am   BACKBONE|DICT|INTERRES
    61   29   99 1    
    62   30   31 2    
    63   30   32 1    
    64   32   33 1    
    65   32   34 1    
    66   32  100 1    
    67   33  101 1    
    68   33  102 1    
    69   33  103 1    
    70   34   35 am   BACKBONE|DICT|INTERRES
    71   34  104 1    
    72   35   36 2    
    73   37   38 2    
    74   37   39 am   BACKBONE|DICT|INTERRES
    75   39   40 1    
    76   39  105 1    
    77   40   41 1    
    78   40   42 1    
    79   40  106 1    
    80   41  107 1    
    81   41  108 1    
    82   41  109 1    
    83   42   43 2    
    84   42   44 am   BACKBONE|DICT|INTERRES
    85   44   45 1    
    86   44  110 1    
    87   45   46 1    
    88   45   47 1    
    89   45  111 1    
    90   46  112 1    
    91   46  113 1    
    92   46  114 1    
    93   47   48 2    
    94   47   49 am   BACKBONE|DICT|INTERRES
    95   49   50 1    
    96   49  115 1    
    97   50   51 1    
    98   50   52 1    
    99   50  116 1    
   100   51  117 1    
   101   51  118 1    
   102   51  119 1    
   103   52   53 2    
   104   52   54 am   BACKBONE|DICT|INTERRES
   105   54   55 1    
   106   54  120 1    
   107   55   56 1    
   108   55   57 1    
   109   55  121 1    
   110   56  122 1    
   111   56  123 1    
   112   56  124 1    
   113   57   58 2    
   114   57   59 am   BACKBONE|DICT|INTERRES
   115   59   60 1    
   116   59  125 1    
   117   60   61 1    
   118   60   62 1    
   119   60  126 1    
   120   61  127 1    
   121   61  128 1    
   122   61  129 1    
   123   62   63 2    
   124   62   64 am   BACKBONE|DICT|INTERRES
   125   64   65 1    
   126   64  130 1    
   127   65   66 1    
   128   65   69 1    
   129   65  131 1    
   130   66   67 am   BACKBONE|DICT|INTERRES
   131   66   68 2    
   132   67  132 1    
   133   67  133 1    
   134   69   70 1    
   135   69  134 1    
   136   69  135 1    
   137   70   71 1    
   138   71  136 1    
   139   71  137 1    
@<TRIPOS>SUBSTRUCTURE
     1 UNK         1 GROUP             0       ****    0 ROOT    
