@<TRIPOS>MOLECULE
3R137
137   139    1
SMALL
USER_CHARGES


@<TRIPOS>ATOM
      1 CA         28.5494   -3.7753   -4.9235 C.3       0 UNK        -0.2020 
      2 C          27.7736   -4.3526   -3.7507 C.2       0 UNK         0.4855 
      3 O          26.8498   -5.1425   -3.9544 O.2       0 UNK        -0.5197 
      4 N          28.1388   -3.9720   -2.5198 N.am      1 UNK        -0.4892 
      5 CA         27.4902   -4.4291   -1.2873 C.3       1 UNK         0.0835 
      6 C6         28.2898   -4.0643   -0.0124 C.3       12 UNK        -0.0855 
      7 S7         29.9748   -4.7698   -0.0276 S.3       12 UNK        -0.2931 
      8 C8         31.0208   -3.2865    0.1369 C.3       12 UNK         0.0378 
      9 C9         30.8757   -2.3410   -1.0473 C.ar      12 UNK        -0.0802 
     10 C10        31.4574   -2.6576   -2.2781 C.ar      12 UNK        -0.0944 
     11 C11        31.3294   -1.7933   -3.3703 C.ar      12 UNK        -0.0787 
     12 C12        30.6051   -0.6043   -3.2220 C.ar      12 UNK        -0.0862 
     13 C13        30.0364   -0.2673   -1.9885 C.ar      12 UNK        -0.0733 
     14 C14        30.1737   -1.1407   -0.9072 C.ar      12 UNK        -0.0832 
     15 C15        29.2984    1.0503   -1.8043 C.3       12 UNK         0.0240 
     16 S16        27.4993    0.8417   -1.9973 S.3       12 UNK        -0.2522 
     17 C17        27.1369    2.0810   -3.2822 C.3       12 UNK        -0.0967 
     18 CA         27.3970    1.5312   -4.7118 C.3       5 UNK         0.0660 
     19 N          26.2503    0.8099   -5.2596 N.am      5 UNK        -0.4015 
     20 C          26.0211   -0.5004   -5.1435 C.2       4 UNK         0.4946 
     21 O          26.7143   -1.2703   -4.4783 O.2       4 UNK        -0.5353 
     22 CA         24.8546   -1.0629   -5.9616 C.3       4 UNK         0.0277 
     23 CB         25.2316   -1.1207   -7.4572 C.3       4 UNK        -0.1981 
     24 N          24.5479   -2.4012   -5.4629 N.am      4 UNK        -0.4209 
     25 C          23.4781   -3.1367   -5.7827 C.2       3 UNK         0.4942 
     26 O          22.5738   -2.7493   -6.5243 O.2       3 UNK        -0.5208 
     27 CA         23.4028   -4.5501   -5.1856 C.3       3 UNK         0.0250 
     28 CB         24.2079   -5.5402   -6.0436 C.3       3 UNK        -0.1990 
     29 N          23.8565   -4.6150   -3.7926 N.am      3 UNK        -0.4232 
     30 C          23.1130   -4.2068   -2.7513 C.2       2 UNK         0.4993 
     31 O          22.0096   -3.6735   -2.8764 O.2       2 UNK        -0.5286 
     32 CA         23.6436   -4.4634   -1.3285 C.3       2 UNK         0.0209 
     33 CB         22.8553   -5.6052   -0.6635 C.3       2 UNK        -0.1931 
     34 N          25.0685   -4.7965   -1.2958 N.am      2 UNK        -0.4546 
     35 C          26.0485   -3.8889   -1.2164 C.2       1 UNK         0.5154 
     36 O          25.8525   -2.6775   -1.1036 O.2       1 UNK        -0.5181 
     37 C          27.7445    2.6597   -5.6967 C.2       5 UNK         0.5014 
     38 O          26.9476    2.9655   -6.5896 O.2       5 UNK        -0.5248 
     39 N          28.9293    3.2597   -5.5086 N.am      6 UNK        -0.4434 
     40 CA         29.4862    4.3681   -6.2928 C.3       6 UNK         0.0363 
     41 CB         28.6804    5.6648   -6.0454 C.3       6 UNK        -0.1936 
     42 C          29.6416    3.9943   -7.7797 C.2       6 UNK         0.5081 
     43 O          30.0382    2.8653   -8.0760 O.2       6 UNK        -0.5248 
     44 N          29.3189    4.9222   -8.6900 N.am      7 UNK        -0.4718 
     45 CA         29.4217    4.7576  -10.1446 C.3       7 UNK         0.0273 
     46 CB         29.1202    6.1032  -10.8240 C.3       7 UNK        -0.1935 
     47 C          28.5305    3.6472  -10.7328 C.2       7 UNK         0.5018 
     48 O          28.8351    3.1569  -11.8200 O.2       7 UNK        -0.5186 
     49 N          27.4647    3.2589  -10.0162 N.am      8 UNK        -0.4240 
     50 CA         26.6072    2.1284  -10.3795 C.3       8 UNK         0.0235 
     51 CB         25.2667    2.2306   -9.6345 C.3       8 UNK        -0.2000 
     52 C          27.2830    0.7695  -10.1217 C.2       8 UNK         0.4941 
     53 O          27.0009   -0.1824  -10.8500 O.2       8 UNK        -0.5273 
     54 N          28.1618    0.7016   -9.1103 N.am      9 UNK        -0.4262 
     55 CA         29.0032   -0.4644   -8.8334 C.3       9 UNK         0.0264 
     56 CB         29.2985   -0.5585   -7.3282 C.3       9 UNK        -0.1955 
     57 C          30.3122   -0.4026   -9.6332 C.2       9 UNK         0.5031 
     58 O          30.7145   -1.4130  -10.2104 O.2       9 UNK        -0.5390 
     59 N          30.9476    0.7804   -9.6398 N.am      10 UNK        -0.4204 
     60 CA         32.2136    1.1178  -10.3022 C.3       10 UNK         0.0237 
     61 CB         32.0594    1.0626  -11.8371 C.3       10 UNK        -0.1985 
     62 C          33.4214    0.3046   -9.7899 C.2       10 UNK         0.4970 
     63 O          34.3705    0.0822  -10.5441 O.2       10 UNK        -0.4914 
     64 N          33.3740   -0.1167   -8.5185 N.am      11 UNK        -0.4285 
     65 CA         34.4294   -0.8966   -7.8530 C.3       11 UNK         0.1007 
     66 C          35.6717   -0.0755   -7.3960 C.2       11 UNK         0.5703 
     67 N          35.6579    1.2507   -7.4671 N.am      11 UNK        -0.7361 
     68 O          36.6745   -0.6557   -6.9860 O.2       11 UNK        -0.4986 
     69 C69        33.8531   -1.7915   -6.7239 C.3       12 UNK        -0.0947 
     70 S70        33.0655   -0.8752   -5.3550 S.3       12 UNK        -0.2240 
     71 C71        31.9571   -2.1668   -4.7086 C.3       12 UNK         0.0194 
     72 H72        29.3789   -4.4287   -5.1910 H         1 UNK         0.0906 
     73 H73        27.8994   -3.6673   -5.7915 H         1 UNK         0.0906 
     74 H74        28.9414   -2.7885   -4.6818 H         1 UNK         0.0906 
     75 H75        28.8827   -3.2976   -2.3977 H         1 UNK         0.3140 
     76 H76        27.4445   -5.5196   -1.3364 H         1 UNK         0.1085 
     77 H77        27.7811   -4.4507    0.8730 H         1 UNK         0.0836 
     78 H78        28.3328   -2.9825    0.1198 H         1 UNK         0.0836 
     79 H79        32.0628   -3.5984    0.2219 H         1 UNK         0.0731 
     80 H80        30.7794   -2.7793    1.0724 H         1 UNK         0.0731 
     81 H81        32.0056   -3.5844   -2.3824 H         1 UNK         0.1312 
     82 H82        30.5021    0.0645   -4.0648 H         1 UNK         0.1406 
     83 H83        29.7315   -0.8815    0.0455 H         1 UNK         0.1631 
     84 H84        29.6824    1.7880   -2.5095 H         1 UNK         0.0717 
     85 H85        29.5003    1.4542   -0.8111 H         1 UNK         0.0717 
     86 H86        26.0977    2.3980   -3.1777 H         1 UNK         0.0934 
     87 H87        27.7294    2.9710   -3.0610 H         1 UNK         0.0934 
     88 H88        28.2590    0.8611   -4.7004 H         1 UNK         0.0739 
     89 H89        25.6892    1.3711   -5.8883 H         1 UNK         0.3093 
     90 H90        23.9829   -0.4213   -5.8175 H         1 UNK         0.0818 
     91 H91        25.5081   -0.1364   -7.8319 H         1 UNK         0.0819 
     92 H92        26.0797   -1.7840   -7.6325 H         1 UNK         0.0819 
     93 H93        24.4024   -1.4705   -8.0715 H         1 UNK         0.0819 
     94 H94        25.2399   -2.7622   -4.8156 H         1 UNK         0.3041 
     95 H95        22.3569   -4.8640   -5.2169 H         1 UNK         0.0784 
     96 H96        23.8331   -5.5597   -7.0679 H         1 UNK         0.0793 
     97 H97        25.2638   -5.2723   -6.0912 H         1 UNK         0.0793 
     98 H98        24.1362   -6.5553   -5.6530 H         1 UNK         0.0793 
     99 H99        24.7836   -4.9948   -3.6301 H         1 UNK         0.3024 
    100 H100       23.4691   -3.5517   -0.7517 H         1 UNK         0.1171 
    101 H101       22.9757   -6.5470   -1.2005 H         1 UNK         0.0786 
    102 H102       23.1763   -5.7616    0.3666 H         1 UNK         0.0786 
    103 H103       21.7881   -5.3800   -0.6366 H         1 UNK         0.0786 
    104 H104       25.3090   -5.7721   -1.4043 H         1 UNK         0.2977 
    105 H105       29.5342    2.9103   -4.7794 H         1 UNK         0.3127 
    106 H106       30.4982    4.5306   -5.9191 H         1 UNK         0.0770 
    107 H107       29.1753    6.5326   -6.4829 H         1 UNK         0.0814 
    108 H108       28.5832    5.8659   -4.9785 H         1 UNK         0.0814 
    109 H109       27.6732    5.6084   -6.4606 H         1 UNK         0.0814 
    110 H110       28.9869    5.8173   -8.3603 H         1 UNK         0.2983 
    111 H111       30.4549    4.4841  -10.3706 H         1 UNK         0.0947 
    112 H112       29.2180    6.0244  -11.9079 H         1 UNK         0.0806 
    113 H113       29.8121    6.8790  -10.4955 H         1 UNK         0.0806 
    114 H114       28.1058    6.4439  -10.6128 H         1 UNK         0.0806 
    115 H115       27.2866    3.7065   -9.1271 H         1 UNK         0.3000 
    116 H116       26.3980    2.1883  -11.4501 H         1 UNK         0.0850 
    117 H117       24.7427    3.1521   -9.8885 H         1 UNK         0.0810 
    118 H118       25.3980    2.2090   -8.5533 H         1 UNK         0.0810 
    119 H119       24.6091    1.4016   -9.9000 H         1 UNK         0.0810 
    120 H120       28.3638    1.5455   -8.5887 H         1 UNK         0.3040 
    121 H121       28.4737   -1.3742   -9.1252 H         1 UNK         0.0766 
    122 H122       29.9519   -1.4054   -7.1212 H         1 UNK         0.0812 
    123 H123       28.3857   -0.7156   -6.7579 H         1 UNK         0.0812 
    124 H124       29.7892    0.3364   -6.9445 H         1 UNK         0.0812 
    125 H125       30.5451    1.5377   -9.0844 H         1 UNK         0.3205 
    126 H126       32.4198    2.1548  -10.0334 H         1 UNK         0.0754 
    127 H127       32.9454    1.4566  -12.3363 H         1 UNK         0.0769 
    128 H128       31.2102    1.6591  -12.1709 H         1 UNK         0.0769 
    129 H129       31.9120    0.0422  -12.1924 H         1 UNK         0.0769 
    130 H130       32.5755    0.1221   -7.9504 H         1 UNK         0.2981 
    131 H131       34.8232   -1.5870   -8.6016 H         1 UNK         0.0541 
    132 H132       34.8415    1.7364   -7.8000 H         1 UNK         0.3459 
    133 H133       36.4713    1.7688   -7.1747 H         1 UNK         0.3459 
    134 H134       34.6328   -2.4306   -6.3056 H         1 UNK         0.0612 
    135 H135       33.1160   -2.4716   -7.1542 H         1 UNK         0.0612 
    136 H136       32.5258   -3.0933   -4.6139 H         1 UNK         0.0624 
    137 H137       31.1714   -2.3630   -5.4358 H         1 UNK         0.0624 
@<TRIPOS>BOND
     1    1    2 1    
     2    1   72 1    
     3    1   73 1    
     4    1   74 1    
     5    2    3 2    
     6    2    4 am   BACKBONE|DICT|INTERRES
     7    4    5 1    
     8    4   75 1    
     9    5    6 1    
    10    5   35 1    
    11    5   76 1    
    12    6    7 1    
    13    6   77 1    
    14    6   78 1    
    15    7    8 1    
    16    8    9 1    
    17    8   79 1    
    18    8   80 1    
    19    9   10 ar   
    20    9   14 ar   
    21   10   11 ar   
    22   10   81 1    
    23   11   12 ar   
    24   11   71 1    
    25   12   13 ar   
    26   12   82 1    
    27   13   14 ar   
    28   13   15 1    
    29   14   83 1    
    30   15   16 1    
    31   15   84 1    
    32   15   85 1    
    33   16   17 1    
    34   17   18 1    
    35   17   86 1    
    36   17   87 1    
    37   18   19 1    
    38   18   37 1    
    39   18   88 1    
    40   19   20 am   BACKBONE|DICT|INTERRES
    41   19   89 1    
    42   20   21 2    
    43   20   22 1    
    44   22   23 1    
    45   22   24 1    
    46   22   90 1    
    47   23   91 1    
    48   23   92 1    
    49   23   93 1    
    50   24   25 am   BACKBONE|DICT|INTERRES
    51   24   94 1    
    52   25   26 2    
    53   25   27 1    
    54   27   28 1    
    55   27   29 1    
    56   27   95 1    
    57   28   96 1    
    58   28   97 1    
    59   28   98 1    
    60   29   30 am   BACKBONE|DICT|INTERRES
    61   29   99 1    
    62   30   31 2    
    63   30   32 1    
    64   32   33 1    
    65   32   34 1    
    66   32  100 1    
    67   33  101 1    
    68   33  102 1    
    69   33  103 1    
    70   34   35 am   BACKBONE|DICT|INTERRES
    71   34  104 1    
    72   35   36 2    
    73   37   38 2    
    74   37   39 am   BACKBONE|DICT|INTERRES
    75   39   40 1    
    76   39  105 1    
    77   40   41 1    
    78   40   42 1    
    79   40  106 1    
    80   41  107 1    
    81   41  108 1    
    82   41  109 1    
    83   42   43 2    
    84   42   44 am   BACKBONE|DICT|INTERRES
    85   44   45 1    
    86   44  110 1    
    87   45   46 1    
    88   45   47 1    
    89   45  111 1    
    90   46  112 1    
    91   46  113 1    
    92   46  114 1    
    93   47   48 2    
    94   47   49 am   BACKBONE|DICT|INTERRES
    95   49   50 1    
    96   49  115 1    
    97   50   51 1    
    98   50   52 1    
    99   50  116 1    
   100   51  117 1    
   101   51  118 1    
   102   51  119 1    
   103   52   53 2    
   104   52   54 am   BACKBONE|DICT|INTERRES
   105   54   55 1    
   106   54  120 1    
   107   55   56 1    
   108   55   57 1    
   109   55  121 1    
   110   56  122 1    
   111   56  123 1    
   112   56  124 1    
   113   57   58 2    
   114   57   59 am   BACKBONE|DICT|INTERRES
   115   59   60 1    
   116   59  125 1    
   117   60   61 1    
   118   60   62 1    
   119   60  126 1    
   120   61  127 1    
   121   61  128 1    
   122   61  129 1    
   123   62   63 2    
   124   62   64 am   BACKBONE|DICT|INTERRES
   125   64   65 1    
   126   64  130 1    
   127   65   66 1    
   128   65   69 1    
   129   65  131 1    
   130   66   67 am   BACKBONE|DICT|INTERRES
   131   66   68 2    
   132   67  132 1    
   133   67  133 1    
   134   69   70 1    
   135   69  134 1    
   136   69  135 1    
   137   70   71 1    
   138   71  136 1    
   139   71  137 1    
@<TRIPOS>SUBSTRUCTURE
     1 UNK         1 GROUP             0       ****    0 ROOT    
