@<TRIPOS>MOLECULE
3R137
137   139    1
SMALL
USER_CHARGES


@<TRIPOS>ATOM
      1 CA         29.5055   -1.6599    1.6939 C.3       0 UNK        -0.2020 
      2 C          30.1400   -1.0563    0.4431 C.2       0 UNK         0.4855 
      3 O          30.9682   -0.1568    0.5726 O.2       0 UNK        -0.5197 
      4 N          29.8188   -1.5019   -0.7808 N.am      1 UNK        -0.4892 
      5 CA         28.8356   -2.5170   -1.1891 C.3       1 UNK         0.0835 
      6 C6         29.0411   -3.8992   -0.5028 C.3       12 UNK        -0.0855 
      7 S7         28.5918   -5.3147   -1.5658 S.3       12 UNK        -0.2931 
      8 C8         30.1841   -5.7084   -2.3616 C.3       12 UNK         0.0378 
      9 C9         30.5298   -4.6753   -3.4221 C.ar      12 UNK        -0.0802 
     10 C10        31.4172   -3.6336   -3.1365 C.ar      12 UNK        -0.0944 
     11 C11        31.6744   -2.6456   -4.0903 C.ar      12 UNK        -0.0787 
     12 C12        31.0532   -2.7160   -5.3406 C.ar      12 UNK        -0.0862 
     13 C13        30.1840   -3.7663   -5.6506 C.ar      12 UNK        -0.0733 
     14 C14        29.9331   -4.7477   -4.6842 C.ar      12 UNK        -0.0832 
     15 C15        29.5638   -3.8304   -7.0456 C.3       12 UNK         0.0240 
     16 S16        27.8850   -4.5484   -7.1105 S.3       12 UNK        -0.2522 
     17 C17        26.8997   -3.3269   -6.1826 C.3       12 UNK        -0.0967 
     18 CA         26.2625   -2.2642   -7.1156 C.3       5 UNK         0.0660 
     19 N          24.9394   -1.8382   -6.6603 N.am      5 UNK        -0.4015 
     20 C          24.0124   -1.2754   -7.4494 C.2       4 UNK         0.4946 
     21 O          24.1457   -1.1255   -8.6641 O.2       4 UNK        -0.5353 
     22 CA         22.7223   -0.7776   -6.7724 C.3       4 UNK         0.0277 
     23 CB         21.6459   -1.8746   -6.7951 C.3       4 UNK        -0.1981 
     24 N          22.9269   -0.3245   -5.3938 N.am      4 UNK        -0.4209 
     25 C          23.6532    0.7486   -5.0501 C.2       3 UNK         0.4942 
     26 O          24.1969    1.4954   -5.8613 O.2       3 UNK        -0.5208 
     27 CA         23.8590    0.9950   -3.5466 C.3       3 UNK         0.0250 
     28 CB         22.6855    1.8000   -2.9662 C.3       3 UNK        -0.1990 
     29 N          24.0553   -0.2300   -2.7612 N.am      3 UNK        -0.4232 
     30 C          25.0207   -1.1344   -2.9771 C.2       2 UNK         0.4993 
     31 O          25.8104   -1.0869   -3.9254 O.2       2 UNK        -0.5286 
     32 CA         25.0856   -2.3212   -2.0025 C.3       2 UNK         0.0209 
     33 CB         24.2924   -3.5131   -2.5622 C.3       2 UNK        -0.1931 
     34 N          26.4709   -2.7344   -1.7740 N.am      2 UNK        -0.4546 
     35 C          27.3837   -1.9971   -1.1298 C.2       1 UNK         0.5154 
     36 O          27.1125   -0.9483   -0.5386 O.2       1 UNK        -0.5181 
     37 C          27.1739   -1.0391   -7.2918 C.2       5 UNK         0.5014 
     38 O          27.7851   -0.8878   -8.3483 O.2       5 UNK        -0.5248 
     39 N          27.2087   -0.1617   -6.2775 N.am      6 UNK        -0.4434 
     40 CA         27.9864    1.0809   -6.2758 C.3       6 UNK         0.0363 
     41 CB         27.8678    1.7570   -4.9019 C.3       6 UNK        -0.1936 
     42 C          27.5952    2.0554   -7.4025 C.2       6 UNK         0.5081 
     43 O          28.4685    2.7256   -7.9509 O.2       6 UNK        -0.5248 
     44 N          26.3029    2.0948   -7.7554 N.am      7 UNK        -0.4718 
     45 CA         25.7785    2.8425   -8.9006 C.3       7 UNK         0.0273 
     46 CB         24.2436    2.8752   -8.8272 C.3       7 UNK        -0.1935 
     47 C          26.2354    2.2831  -10.2608 C.2       7 UNK         0.5018 
     48 O          26.3463    3.0553  -11.2141 O.2       7 UNK        -0.5186 
     49 N          26.4826    0.9676  -10.3359 N.am      8 UNK        -0.4240 
     50 CA         26.9812    0.2906  -11.5328 C.3       8 UNK         0.0235 
     51 CB         26.5356   -1.1818  -11.5279 C.3       8 UNK        -0.2000 
     52 C          28.5082    0.4096  -11.6496 C.2       8 UNK         0.4941 
     53 O          29.0022    0.7568  -12.7235 O.2       8 UNK        -0.5273 
     54 N          29.2262    0.1331  -10.5537 N.am      9 UNK        -0.4262 
     55 CA         30.6817    0.2019  -10.4693 C.3       9 UNK         0.0264 
     56 CB         31.3117   -1.0706  -11.0698 C.3       9 UNK        -0.1955 
     57 C          31.0858    0.3950   -9.0041 C.2       9 UNK         0.5031 
     58 O          31.0475   -0.5641   -8.2319 O.2       9 UNK        -0.5390 
     59 N          31.4632    1.6267   -8.6428 N.am      10 UNK        -0.4204 
     60 CA         31.9802    1.9715   -7.3176 C.3       10 UNK         0.0237 
     61 CB         31.9132    3.4958   -7.1270 C.3       10 UNK        -0.1985 
     62 C          33.4220    1.4709   -7.1334 C.2       10 UNK         0.4970 
     63 O          34.1995    1.4739   -8.0915 O.2       10 UNK        -0.4914 
     64 N          33.7544    1.0856   -5.8981 N.am      11 UNK        -0.4285 
     65 CA         35.1059    0.6850   -5.4837 C.3       11 UNK         0.1007 
     66 C          36.0397    1.9125   -5.3042 C.2       11 UNK         0.5703 
     67 N          37.3343    1.7454   -5.5379 N.am      11 UNK        -0.7361 
     68 O          35.6101    2.9999   -4.9217 O.2       11 UNK        -0.4986 
     69 C69        35.0679   -0.1796   -4.1967 C.3       12 UNK        -0.0947 
     70 S70        34.2626   -1.7906   -4.4801 S.3       12 UNK        -0.2240 
     71 C71        32.6144   -1.4942   -3.7746 C.3       12 UNK         0.0194 
     72 H72        29.6293   -0.9856    2.5410 H         1 UNK         0.0906 
     73 H73        28.4377   -1.8312    1.5746 H         1 UNK         0.0906 
     74 H74        29.9884   -2.6026    1.9485 H         1 UNK         0.0906 
     75 H75        30.2574   -1.0330   -1.5601 H         1 UNK         0.3140 
     76 H76        29.0284   -2.6385   -2.2553 H         1 UNK         0.1085 
     77 H77        30.0839   -4.0249   -0.2076 H         1 UNK         0.0836 
     78 H78        28.4650   -3.9728    0.4210 H         1 UNK         0.0836 
     79 H79        30.9724   -5.7788   -1.6104 H         1 UNK         0.0731 
     80 H80        30.1148   -6.6950   -2.8223 H         1 UNK         0.0731 
     81 H81        31.8862   -3.5769   -2.1635 H         1 UNK         0.1312 
     82 H82        31.2614   -1.9547   -6.0801 H         1 UNK         0.1406 
     83 H83        29.2603   -5.5653   -4.9034 H         1 UNK         0.1631 
     84 H84        29.5368   -2.8369   -7.4952 H         1 UNK         0.0717 
     85 H85        30.2171   -4.4308   -7.6795 H         1 UNK         0.0717 
     86 H86        26.1172   -3.8958   -5.6784 H         1 UNK         0.0934 
     87 H87        27.4913   -2.8822   -5.3792 H         1 UNK         0.0934 
     88 H88        26.1262   -2.7115   -8.1033 H         1 UNK         0.0739 
     89 H89        24.7915   -1.8419   -5.6598 H         1 UNK         0.3093 
     90 H90        22.3569    0.0727   -7.3527 H         1 UNK         0.0818 
     91 H91        20.6986   -1.5101   -6.3974 H         1 UNK         0.0819 
     92 H92        21.4573   -2.2136   -7.8148 H         1 UNK         0.0819 
     93 H93        21.9431   -2.7471   -6.2118 H         1 UNK         0.0819 
     94 H94        22.5104   -0.8785   -4.6597 H         1 UNK         0.3041 
     95 H95        24.7654    1.5940   -3.4391 H         1 UNK         0.0784 
     96 H96        22.5327    2.7245   -3.5253 H         1 UNK         0.0793 
     97 H97        21.7507    1.2391   -3.0025 H         1 UNK         0.0793 
     98 H98        22.8701    2.0796   -1.9287 H         1 UNK         0.0793 
     99 H99        23.4396   -0.3567   -1.9704 H         1 UNK         0.3024 
    100 H100       24.6544   -2.0218   -1.0444 H         1 UNK         0.1171 
    101 H101       24.3101   -4.3584   -1.8738 H         1 UNK         0.0786 
    102 H102       23.2458   -3.2495   -2.7207 H         1 UNK         0.0786 
    103 H103       24.6921   -3.8530   -3.5185 H         1 UNK         0.0786 
    104 H104       26.7738   -3.5860   -2.2267 H         1 UNK         0.2977 
    105 H105       26.6807   -0.3758   -5.4334 H         1 UNK         0.3127 
    106 H106       29.0304    0.8040   -6.4331 H         1 UNK         0.0770 
    107 H107       26.8406    2.0549   -4.6898 H         1 UNK         0.0814 
    108 H108       28.4851    2.6552   -4.8559 H         1 UNK         0.0814 
    109 H109       28.1970    1.0937   -4.1017 H         1 UNK         0.0814 
    110 H110       25.6245    1.5968   -7.1849 H         1 UNK         0.2983 
    111 H111       26.1471    3.8682   -8.8294 H         1 UNK         0.0947 
    112 H112       23.8222    3.4316   -9.6655 H         1 UNK         0.0806 
    113 H113       23.9011    3.3600   -7.9128 H         1 UNK         0.0806 
    114 H114       23.8186    1.8708   -8.8529 H         1 UNK         0.0806 
    115 H115       26.4122    0.4093   -9.4943 H         1 UNK         0.3000 
    116 H116       26.5410    0.7639  -12.4135 H         1 UNK         0.0850 
    117 H117       26.8542   -1.6863  -12.4409 H         1 UNK         0.0810 
    118 H118       25.4501   -1.2657  -11.4716 H         1 UNK         0.0810 
    119 H119       26.9545   -1.7366  -10.6883 H         1 UNK         0.0810 
    120 H120       28.7464   -0.1668   -9.7031 H         1 UNK         0.3040 
    121 H121       31.0339    1.0632  -11.0413 H         1 UNK         0.0766 
    122 H122       31.0942   -1.1595  -12.1341 H         1 UNK         0.0812 
    123 H123       30.9443   -1.9716  -10.5768 H         1 UNK         0.0812 
    124 H124       32.3967   -1.0567  -10.9603 H         1 UNK         0.0812 
    125 H125       31.4714    2.3607   -9.3356 H         1 UNK         0.3205 
    126 H126       31.3438    1.5006   -6.5656 H         1 UNK         0.0754 
    127 H127       32.2719    3.7828   -6.1376 H         1 UNK         0.0769 
    128 H128       30.8903    3.8622   -7.2179 H         1 UNK         0.0769 
    129 H129       32.5254    4.0223   -7.8604 H         1 UNK         0.0769 
    130 H130       33.0758    1.1723   -5.1580 H         1 UNK         0.2981 
    131 H131       35.5292    0.0730   -6.2833 H         1 UNK         0.0541 
    132 H132       37.6996    0.8555   -5.8401 H         1 UNK         0.3459 
    133 H133       37.9591    2.5268   -5.4136 H         1 UNK         0.3459 
    134 H134       34.5722    0.3501   -3.3810 H         1 UNK         0.0612 
    135 H135       36.0810   -0.3903   -3.8489 H         1 UNK         0.0612 
    136 H136       32.1998   -0.5694   -4.1766 H         1 UNK         0.0624 
    137 H137       32.7038   -1.3532   -2.6962 H         1 UNK         0.0624 
@<TRIPOS>BOND
     1    1    2 1    
     2    1   72 1    
     3    1   73 1    
     4    1   74 1    
     5    2    3 2    
     6    2    4 am   BACKBONE|DICT|INTERRES
     7    4    5 1    
     8    4   75 1    
     9    5    6 1    
    10    5   35 1    
    11    5   76 1    
    12    6    7 1    
    13    6   77 1    
    14    6   78 1    
    15    7    8 1    
    16    8    9 1    
    17    8   79 1    
    18    8   80 1    
    19    9   10 ar   
    20    9   14 ar   
    21   10   11 ar   
    22   10   81 1    
    23   11   12 ar   
    24   11   71 1    
    25   12   13 ar   
    26   12   82 1    
    27   13   14 ar   
    28   13   15 1    
    29   14   83 1    
    30   15   16 1    
    31   15   84 1    
    32   15   85 1    
    33   16   17 1    
    34   17   18 1    
    35   17   86 1    
    36   17   87 1    
    37   18   19 1    
    38   18   37 1    
    39   18   88 1    
    40   19   20 am   BACKBONE|DICT|INTERRES
    41   19   89 1    
    42   20   21 2    
    43   20   22 1    
    44   22   23 1    
    45   22   24 1    
    46   22   90 1    
    47   23   91 1    
    48   23   92 1    
    49   23   93 1    
    50   24   25 am   BACKBONE|DICT|INTERRES
    51   24   94 1    
    52   25   26 2    
    53   25   27 1    
    54   27   28 1    
    55   27   29 1    
    56   27   95 1    
    57   28   96 1    
    58   28   97 1    
    59   28   98 1    
    60   29   30 am   BACKBONE|DICT|INTERRES
    61   29   99 1    
    62   30   31 2    
    63   30   32 1    
    64   32   33 1    
    65   32   34 1    
    66   32  100 1    
    67   33  101 1    
    68   33  102 1    
    69   33  103 1    
    70   34   35 am   BACKBONE|DICT|INTERRES
    71   34  104 1    
    72   35   36 2    
    73   37   38 2    
    74   37   39 am   BACKBONE|DICT|INTERRES
    75   39   40 1    
    76   39  105 1    
    77   40   41 1    
    78   40   42 1    
    79   40  106 1    
    80   41  107 1    
    81   41  108 1    
    82   41  109 1    
    83   42   43 2    
    84   42   44 am   BACKBONE|DICT|INTERRES
    85   44   45 1    
    86   44  110 1    
    87   45   46 1    
    88   45   47 1    
    89   45  111 1    
    90   46  112 1    
    91   46  113 1    
    92   46  114 1    
    93   47   48 2    
    94   47   49 am   BACKBONE|DICT|INTERRES
    95   49   50 1    
    96   49  115 1    
    97   50   51 1    
    98   50   52 1    
    99   50  116 1    
   100   51  117 1    
   101   51  118 1    
   102   51  119 1    
   103   52   53 2    
   104   52   54 am   BACKBONE|DICT|INTERRES
   105   54   55 1    
   106   54  120 1    
   107   55   56 1    
   108   55   57 1    
   109   55  121 1    
   110   56  122 1    
   111   56  123 1    
   112   56  124 1    
   113   57   58 2    
   114   57   59 am   BACKBONE|DICT|INTERRES
   115   59   60 1    
   116   59  125 1    
   117   60   61 1    
   118   60   62 1    
   119   60  126 1    
   120   61  127 1    
   121   61  128 1    
   122   61  129 1    
   123   62   63 2    
   124   62   64 am   BACKBONE|DICT|INTERRES
   125   64   65 1    
   126   64  130 1    
   127   65   66 1    
   128   65   69 1    
   129   65  131 1    
   130   66   67 am   BACKBONE|DICT|INTERRES
   131   66   68 2    
   132   67  132 1    
   133   67  133 1    
   134   69   70 1    
   135   69  134 1    
   136   69  135 1    
   137   70   71 1    
   138   71  136 1    
   139   71  137 1    
@<TRIPOS>SUBSTRUCTURE
     1 UNK         1 GROUP             0       ****    0 ROOT    
