@<TRIPOS>MOLECULE
3R137
137   139    1
SMALL
USER_CHARGES


@<TRIPOS>ATOM
      1 CA         29.5313   -1.6219    1.6693 C.3       0 UNK        -0.2020 
      2 C          30.1591   -1.0281    0.4105 C.2       0 UNK         0.4855 
      3 O          30.9889   -0.1286    0.5286 O.2       0 UNK        -0.5197 
      4 N          29.8304   -1.4823   -0.8082 N.am      1 UNK        -0.4892 
      5 CA         28.8437   -2.4992   -1.2034 C.3       1 UNK         0.0835 
      6 C6         29.0517   -3.8767   -0.5083 C.3       12 UNK        -0.0855 
      7 S7         28.5956   -5.2992   -1.5590 S.3       12 UNK        -0.2931 
      8 C8         30.1834   -5.6997   -2.3605 C.3       12 UNK         0.0378 
      9 C9         30.5250   -4.6734   -3.4289 C.ar      12 UNK        -0.0802 
     10 C10        31.4155   -3.6313   -3.1540 C.ar      12 UNK        -0.0944 
     11 C11        31.6688   -2.6489   -4.1146 C.ar      12 UNK        -0.0787 
     12 C12        31.0403   -2.7256   -5.3608 C.ar      12 UNK        -0.0862 
     13 C13        30.1687   -3.7767   -5.6606 C.ar      12 UNK        -0.0733 
     14 C14        29.9216   -4.7523   -4.6873 C.ar      12 UNK        -0.0832 
     15 C15        29.5421   -3.8482   -7.0523 C.3       12 UNK         0.0240 
     16 S16        27.8618   -4.5634   -7.1051 S.3       12 UNK        -0.2522 
     17 C17        26.8839   -3.3341   -6.1797 C.3       12 UNK        -0.0967 
     18 CA         26.2448   -2.2752   -7.1159 C.3       5 UNK         0.0660 
     19 N          24.9242   -1.8454   -6.6574 N.am      5 UNK        -0.4015 
     20 C          23.9921   -1.2912   -7.4464 C.2       4 UNK         0.4946 
     21 O          24.1174   -1.1544   -8.6636 O.2       4 UNK        -0.5353 
     22 CA         22.7058   -0.7870   -6.7666 C.3       4 UNK         0.0277 
     23 CB         21.6274   -1.8822   -6.7783 C.3       4 UNK        -0.1981 
     24 N          22.9168   -0.3263   -5.3915 N.am      4 UNK        -0.4209 
     25 C          23.6456    0.7480   -5.0569 C.2       3 UNK         0.4942 
     26 O          24.1870    1.4894   -5.8746 O.2       3 UNK        -0.5208 
     27 CA         23.8574    1.0029   -3.5557 C.3       3 UNK         0.0250 
     28 CB         22.6865    1.8117   -2.9752 C.3       3 UNK        -0.1990 
     29 N          24.0565   -0.2176   -2.7639 N.am      3 UNK        -0.4232 
     30 C          25.0203   -1.1239   -2.9787 C.2       2 UNK         0.4993 
     31 O          25.8054   -1.0829   -3.9311 O.2       2 UNK        -0.5286 
     32 CA         25.0893   -2.3046   -1.9970 C.3       2 UNK         0.0209 
     33 CB         24.2919   -3.4992   -2.5449 C.3       2 UNK        -0.1931 
     34 N          26.4754   -2.7178   -1.7735 N.am      2 UNK        -0.4546 
     35 C          27.3927   -1.9773   -1.1394 C.2       1 UNK         0.5154 
     36 O          27.1260   -0.9242   -0.5538 O.2       1 UNK        -0.5181 
     37 C          27.1567   -1.0518   -7.3012 C.2       5 UNK         0.5014 
     38 O          27.7617   -0.9041   -8.3618 O.2       5 UNK        -0.5248 
     39 N          27.1979   -0.1711   -6.2899 N.am      6 UNK        -0.4434 
     40 CA         27.9768    1.0709   -6.2958 C.3       6 UNK         0.0363 
     41 CB         27.8635    1.7525   -4.9242 C.3       6 UNK        -0.1936 
     42 C          27.5833    2.0415   -7.4250 C.2       6 UNK         0.5081 
     43 O          28.4550    2.7119   -7.9758 O.2       6 UNK        -0.5248 
     44 N          26.2907    2.0770   -7.7775 N.am      7 UNK        -0.4718 
     45 CA         25.7635    2.8187   -8.9254 C.3       7 UNK         0.0273 
     46 CB         24.2283    2.8439   -8.8529 C.3       7 UNK        -0.1935 
     47 C          26.2239    2.2586  -10.2842 C.2       7 UNK         0.5018 
     48 O          26.3246    3.0285  -11.2405 O.2       7 UNK        -0.5186 
     49 N          26.4861    0.9457  -10.3550 N.am      8 UNK        -0.4240 
     50 CA         26.9964    0.2717  -11.5487 C.3       8 UNK         0.0235 
     51 CB         26.5599   -1.2035  -11.5477 C.3       8 UNK        -0.2000 
     52 C          28.5234    0.4013  -11.6529 C.2       8 UNK         0.4941 
     53 O          29.0232    0.7566  -12.7215 O.2       8 UNK        -0.5273 
     54 N          29.2347    0.1275  -10.5519 N.am      9 UNK        -0.4262 
     55 CA         30.6882    0.2184  -10.4528 C.3       9 UNK         0.0264 
     56 CB         31.3454   -1.0359  -11.0619 C.3       9 UNK        -0.1955 
     57 C          31.0752    0.3985   -8.9815 C.2       9 UNK         0.5031 
     58 O          31.0042   -0.5623   -8.2141 O.2       9 UNK        -0.5390 
     59 N          31.4758    1.6196   -8.6105 N.am      10 UNK        -0.4204 
     60 CA         31.9800    1.9496   -7.2766 C.3       10 UNK         0.0237 
     61 CB         31.8930    3.4705   -7.0667 C.3       10 UNK        -0.1985 
     62 C          33.4266    1.4630   -7.0904 C.2       10 UNK         0.4970 
     63 O          34.1881    1.4132   -8.0598 O.2       10 UNK        -0.4914 
     64 N          33.7838    1.1574   -5.8386 N.am      11 UNK        -0.4285 
     65 CA         35.1345    0.7319   -5.4323 C.3       11 UNK         0.1007 
     66 C          36.1338    1.9068   -5.2160 C.2       11 UNK         0.5703 
     67 N          35.7127    3.1652   -5.2738 N.am      11 UNK        -0.7361 
     68 O          37.3211    1.6715   -5.0040 O.2       11 UNK        -0.4986 
     69 C69        35.0854   -0.2054   -4.1957 C.3       12 UNK        -0.0947 
     70 S70        34.2447   -1.7825   -4.5573 S.3       12 UNK        -0.2240 
     71 C71        32.6126   -1.4972   -3.8111 C.3       12 UNK         0.0194 
     72 H72        29.6605   -0.9415    2.5107 H         1 UNK         0.0906 
     73 H73        28.4627   -1.7931    1.5574 H         1 UNK         0.0906 
     74 H74        30.0148   -2.5631    1.9280 H         1 UNK         0.0906 
     75 H75        30.2652   -1.0198   -1.5935 H         1 UNK         0.3140 
     76 H76        29.0301   -2.6286   -2.2698 H         1 UNK         0.1085 
     77 H77        30.0960   -4.0011   -0.2179 H         1 UNK         0.0836 
     78 H78        28.4805   -3.9431    0.4190 H         1 UNK         0.0836 
     79 H79        30.9754   -5.7667   -1.6129 H         1 UNK         0.0731 
     80 H80        30.1104   -6.6890   -2.8150 H         1 UNK         0.0731 
     81 H81        31.8898   -3.5701   -2.1839 H         1 UNK         0.1312 
     82 H82        31.2459   -1.9686   -6.1052 H         1 UNK         0.1406 
     83 H83        29.2467   -5.5704   -4.8985 H         1 UNK         0.1631 
     84 H84        29.5146   -2.8574   -7.5078 H         1 UNK         0.0717 
     85 H85        30.1914   -4.4536   -7.6856 H         1 UNK         0.0717 
     86 H86        26.1026   -3.8982   -5.6685 H         1 UNK         0.0934 
     87 H87        27.4804   -2.8862   -5.3817 H         1 UNK         0.0934 
     88 H88        26.1047   -2.7272   -8.1009 H         1 UNK         0.0739 
     89 H89        24.7825   -1.8388   -5.6559 H         1 UNK         0.3093 
     90 H90        22.3395    0.0605   -7.3504 H         1 UNK         0.0818 
     91 H91        20.6824   -1.5137   -6.3786 H         1 UNK         0.0819 
     92 H92        21.4337   -2.2268   -7.7952 H         1 UNK         0.0819 
     93 H93        21.9256   -2.7518   -6.1913 H         1 UNK         0.0819 
     94 H94        22.5026   -0.8756   -4.6525 H         1 UNK         0.3041 
     95 H95        24.7644    1.6022   -3.4552 H         1 UNK         0.0784 
     96 H96        22.5318    2.7330   -3.5390 H         1 UNK         0.0793 
     97 H97        21.7515    1.2509   -3.0044 H         1 UNK         0.0793 
     98 H98        22.8754    2.0973   -1.9401 H         1 UNK         0.0793 
     99 H99        23.4444   -0.3390   -1.9695 H         1 UNK         0.3024 
    100 H100       24.6637   -1.9987   -1.0384 H         1 UNK         0.1171 
    101 H101       24.3126   -4.3402   -1.8513 H         1 UNK         0.0786 
    102 H102       23.2447   -3.2355   -2.6992 H         1 UNK         0.0786 
    103 H103       24.6860   -3.8454   -3.5012 H         1 UNK         0.0786 
    104 H104       26.7748   -3.5728   -2.2220 H         1 UNK         0.2977 
    105 H105       26.6741   -0.3820   -5.4424 H         1 UNK         0.3127 
    106 H106       29.0200    0.7923   -6.4553 H         1 UNK         0.0770 
    107 H107       26.8374    2.0526   -4.7101 H         1 UNK         0.0814 
    108 H108       28.4821    2.6501   -4.8837 H         1 UNK         0.0814 
    109 H109       28.1944    1.0919   -4.1224 H         1 UNK         0.0814 
    110 H110       25.6139    1.5795   -7.2048 H         1 UNK         0.2983 
    111 H111       26.1269    3.8464   -8.8565 H         1 UNK         0.0947 
    112 H112       23.8045    3.3951   -9.6935 H         1 UNK         0.0806 
    113 H113       23.8828    3.3302   -7.9405 H         1 UNK         0.0806 
    114 H114       23.8084    1.8373   -8.8754 H         1 UNK         0.0806 
    115 H115       26.4268    0.3900   -9.5106 H         1 UNK         0.3000 
    116 H116       26.5599    0.7423  -12.4327 H         1 UNK         0.0850 
    117 H117       26.8845   -1.7040  -12.4608 H         1 UNK         0.0810 
    118 H118       25.4747   -1.2942  -11.4951 H         1 UNK         0.0810 
    119 H119       26.9796   -1.7576  -10.7082 H         1 UNK         0.0810 
    120 H120       28.7509   -0.1791   -9.7061 H         1 UNK         0.3040 
    121 H121       31.0306    1.0926  -11.0110 H         1 UNK         0.0766 
    122 H122       31.1388   -1.1168  -12.1290 H         1 UNK         0.0812 
    123 H123       30.9897   -1.9486  -10.5820 H         1 UNK         0.0812 
    124 H124       32.4291   -1.0043  -10.9426 H         1 UNK         0.0812 
    125 H125       31.5154    2.3540   -9.3018 H         1 UNK         0.3205 
    126 H126       31.3462    1.4600   -6.5343 H         1 UNK         0.0754 
    127 H127       32.2155    3.7488   -6.0627 H         1 UNK         0.0769 
    128 H128       30.8697    3.8280   -7.1844 H         1 UNK         0.0769 
    129 H129       32.5209    4.0136   -7.7745 H         1 UNK         0.0769 
    130 H130       33.1122    1.2627   -5.0939 H         1 UNK         0.2981 
    131 H131       35.5604    0.1513   -6.2532 H         1 UNK         0.0541 
    132 H132       34.7454    3.3759   -5.4548 H         1 UNK         0.3459 
    133 H133       36.3755    3.9122   -5.1372 H         1 UNK         0.3459 
    134 H134       34.6066    0.2901   -3.3493 H         1 UNK         0.0612 
    135 H135       36.0943   -0.4595   -3.8652 H         1 UNK         0.0612 
    136 H136       32.1875   -0.5701   -4.1965 H         1 UNK         0.0624 
    137 H137       32.7262   -1.3654   -2.7338 H         1 UNK         0.0624 
@<TRIPOS>BOND
     1    1    2 1    
     2    1   72 1    
     3    1   73 1    
     4    1   74 1    
     5    2    3 2    
     6    2    4 am   BACKBONE|DICT|INTERRES
     7    4    5 1    
     8    4   75 1    
     9    5    6 1    
    10    5   35 1    
    11    5   76 1    
    12    6    7 1    
    13    6   77 1    
    14    6   78 1    
    15    7    8 1    
    16    8    9 1    
    17    8   79 1    
    18    8   80 1    
    19    9   10 ar   
    20    9   14 ar   
    21   10   11 ar   
    22   10   81 1    
    23   11   12 ar   
    24   11   71 1    
    25   12   13 ar   
    26   12   82 1    
    27   13   14 ar   
    28   13   15 1    
    29   14   83 1    
    30   15   16 1    
    31   15   84 1    
    32   15   85 1    
    33   16   17 1    
    34   17   18 1    
    35   17   86 1    
    36   17   87 1    
    37   18   19 1    
    38   18   37 1    
    39   18   88 1    
    40   19   20 am   BACKBONE|DICT|INTERRES
    41   19   89 1    
    42   20   21 2    
    43   20   22 1    
    44   22   23 1    
    45   22   24 1    
    46   22   90 1    
    47   23   91 1    
    48   23   92 1    
    49   23   93 1    
    50   24   25 am   BACKBONE|DICT|INTERRES
    51   24   94 1    
    52   25   26 2    
    53   25   27 1    
    54   27   28 1    
    55   27   29 1    
    56   27   95 1    
    57   28   96 1    
    58   28   97 1    
    59   28   98 1    
    60   29   30 am   BACKBONE|DICT|INTERRES
    61   29   99 1    
    62   30   31 2    
    63   30   32 1    
    64   32   33 1    
    65   32   34 1    
    66   32  100 1    
    67   33  101 1    
    68   33  102 1    
    69   33  103 1    
    70   34   35 am   BACKBONE|DICT|INTERRES
    71   34  104 1    
    72   35   36 2    
    73   37   38 2    
    74   37   39 am   BACKBONE|DICT|INTERRES
    75   39   40 1    
    76   39  105 1    
    77   40   41 1    
    78   40   42 1    
    79   40  106 1    
    80   41  107 1    
    81   41  108 1    
    82   41  109 1    
    83   42   43 2    
    84   42   44 am   BACKBONE|DICT|INTERRES
    85   44   45 1    
    86   44  110 1    
    87   45   46 1    
    88   45   47 1    
    89   45  111 1    
    90   46  112 1    
    91   46  113 1    
    92   46  114 1    
    93   47   48 2    
    94   47   49 am   BACKBONE|DICT|INTERRES
    95   49   50 1    
    96   49  115 1    
    97   50   51 1    
    98   50   52 1    
    99   50  116 1    
   100   51  117 1    
   101   51  118 1    
   102   51  119 1    
   103   52   53 2    
   104   52   54 am   BACKBONE|DICT|INTERRES
   105   54   55 1    
   106   54  120 1    
   107   55   56 1    
   108   55   57 1    
   109   55  121 1    
   110   56  122 1    
   111   56  123 1    
   112   56  124 1    
   113   57   58 2    
   114   57   59 am   BACKBONE|DICT|INTERRES
   115   59   60 1    
   116   59  125 1    
   117   60   61 1    
   118   60   62 1    
   119   60  126 1    
   120   61  127 1    
   121   61  128 1    
   122   61  129 1    
   123   62   63 2    
   124   62   64 am   BACKBONE|DICT|INTERRES
   125   64   65 1    
   126   64  130 1    
   127   65   66 1    
   128   65   69 1    
   129   65  131 1    
   130   66   67 am   BACKBONE|DICT|INTERRES
   131   66   68 2    
   132   67  132 1    
   133   67  133 1    
   134   69   70 1    
   135   69  134 1    
   136   69  135 1    
   137   70   71 1    
   138   71  136 1    
   139   71  137 1    
@<TRIPOS>SUBSTRUCTURE
     1 UNK         1 GROUP             0       ****    0 ROOT    
