@<TRIPOS>MOLECULE
3R137
137   139    1
SMALL
USER_CHARGES


@<TRIPOS>ATOM
      1 CA         22.8924   -5.4320   -3.2299 C.3       0 UNK        -0.2020 
      2 C          24.3070   -4.8820   -3.3288 C.2       0 UNK         0.4855 
      3 O          24.6375   -4.2372   -4.3232 O.2       0 UNK        -0.5197 
      4 N          25.1324   -5.1227   -2.2984 N.am      1 UNK        -0.4892 
      5 CA         26.5350   -4.6985   -2.1776 C.3       1 UNK         0.0835 
      6 C6         27.4756   -5.4892   -3.1277 C.3       12 UNK        -0.0855 
      7 S7         29.2059   -5.5168   -2.5307 S.3       12 UNK        -0.2931 
      8 C8         30.0937   -4.6934   -3.8937 C.3       12 UNK         0.0378 
      9 C9         31.0481   -3.6142   -3.4017 C.ar      12 UNK        -0.0802 
     10 C10        32.4195   -3.6976   -3.6588 C.ar      12 UNK        -0.0944 
     11 C11        33.2741   -2.6498   -3.2975 C.ar      12 UNK        -0.0787 
     12 C12        32.7494   -1.5161   -2.6674 C.ar      12 UNK        -0.0862 
     13 C13        31.3812   -1.4266   -2.3938 C.ar      12 UNK        -0.0733 
     14 C14        30.5457   -2.4868   -2.7498 C.ar      12 UNK        -0.0832 
     15 C15        30.7995   -0.1723   -1.7480 C.3       12 UNK         0.0240 
     16 S16        29.3430    0.4862   -2.6364 S.3       12 UNK        -0.2522 
     17 C17        30.0238    0.7233   -4.3092 C.3       12 UNK        -0.0967 
     18 CA         28.9748    0.8765   -5.4336 C.3       5 UNK         0.0660 
     19 N          28.0029   -0.2220   -5.5274 N.am      5 UNK        -0.4015 
     20 C          27.4651   -0.6028   -6.6966 C.2       4 UNK         0.4946 
     21 O          27.7986   -0.1231   -7.7806 O.2       4 UNK        -0.5353 
     22 CA         26.3689   -1.6784   -6.6854 C.3       4 UNK         0.0277 
     23 CB         26.9796   -3.0863   -6.6887 C.3       4 UNK        -0.1981 
     24 N          25.4280   -1.5364   -5.5753 N.am      4 UNK        -0.4209 
     25 C          24.5714   -0.5123   -5.4490 C.2       3 UNK         0.4942 
     26 O          24.5002    0.4202   -6.2482 O.2       3 UNK        -0.5208 
     27 CA         23.6641   -0.5006   -4.2080 C.3       3 UNK         0.0250 
     28 CB         22.4082   -1.3554   -4.4399 C.3       3 UNK        -0.1990 
     29 N          24.3555   -0.9469   -2.9983 N.am      3 UNK        -0.4232 
     30 C          25.3996   -0.3116   -2.4473 C.2       2 UNK         0.4993 
     31 O          25.8640    0.7428   -2.8789 O.2       2 UNK        -0.5286 
     32 CA         26.0637   -0.9907   -1.2381 C.3       2 UNK         0.0209 
     33 CB         25.3854   -0.5498    0.0685 C.3       2 UNK        -0.1931 
     34 N          26.0754   -2.4560   -1.3169 N.am      2 UNK        -0.4546 
     35 C          26.6628   -3.1636   -2.2937 C.2       1 UNK         0.5154 
     36 O          27.2159   -2.6480   -3.2671 O.2       1 UNK        -0.5181 
     37 C          28.3080    2.2640   -5.4649 C.2       5 UNK         0.5014 
     38 O          28.9160    3.1887   -6.0049 O.2       5 UNK        -0.5248 
     39 N          27.0637    2.3966   -4.9762 N.am      6 UNK        -0.4434 
     40 CA         26.2497    3.6091   -5.1449 C.3       6 UNK         0.0363 
     41 CB         24.9623    3.5070   -4.3132 C.3       6 UNK        -0.1936 
     42 C          25.9211    3.9008   -6.6216 C.2       6 UNK         0.5081 
     43 O          25.9574    5.0597   -7.0349 O.2       6 UNK        -0.5248 
     44 N          25.6564    2.8417   -7.3993 N.am      7 UNK        -0.4718 
     45 CA         25.4873    2.8854   -8.8552 C.3       7 UNK         0.0273 
     46 CB         24.7493    1.6117   -9.3016 C.3       7 UNK        -0.1935 
     47 C          26.8132    3.0271   -9.6304 C.2       7 UNK         0.5018 
     48 O          26.7697    3.2382  -10.8430 O.2       7 UNK        -0.5186 
     49 N          27.9533    2.8811   -8.9366 N.am      8 UNK        -0.4240 
     50 CA         29.3292    2.8613   -9.4509 C.3       8 UNK         0.0235 
     51 CB         29.7199    4.2326  -10.0416 C.3       8 UNK        -0.2000 
     52 C          29.6101    1.6887  -10.4136 C.2       8 UNK         0.4941 
     53 O          30.4816    1.7999  -11.2777 O.2       8 UNK        -0.5273 
     54 N          28.8800    0.5796  -10.2399 N.am      9 UNK        -0.4262 
     55 CA         29.0560   -0.6680  -10.9797 C.3       9 UNK         0.0264 
     56 CB         27.7180   -1.4246  -11.0259 C.3       9 UNK        -0.1955 
     57 C          30.1506   -1.5405  -10.3479 C.2       9 UNK         0.5031 
     58 O          30.8954   -2.1920  -11.0816 O.2       9 UNK        -0.5390 
     59 N          30.2376   -1.5286   -9.0109 N.am      10 UNK        -0.4204 
     60 CA         31.2743   -2.2096   -8.2381 C.3       10 UNK         0.0237 
     61 CB         30.6276   -2.9924   -7.0840 C.3       10 UNK        -0.1985 
     62 C          32.2524   -1.1699   -7.6842 C.2       10 UNK         0.4970 
     63 O          31.8090   -0.1844   -7.0933 O.2       10 UNK        -0.4914 
     64 N          33.5540   -1.4270   -7.8633 N.am      11 UNK        -0.4285 
     65 CA         34.6782   -0.6675   -7.2828 C.3       11 UNK         0.1007 
     66 C          34.7530    0.8399   -7.6825 C.2       11 UNK         0.5703 
     67 N          34.1376    1.2595   -8.7817 N.am      11 UNK        -0.7361 
     68 O          35.4096    1.6361   -7.0150 O.2       11 UNK        -0.4986 
     69 C69        34.8147   -0.9089   -5.7506 C.3       12 UNK        -0.0947 
     70 S70        35.1208   -2.6689   -5.3739 S.3       12 UNK        -0.2240 
     71 C71        34.7644   -2.7443   -3.5910 C.3       12 UNK         0.0194 
     72 H72        22.6859   -6.0849   -4.0775 H         1 UNK         0.0906 
     73 H73        22.7384   -6.0051   -2.3158 H         1 UNK         0.0906 
     74 H74        22.1704   -4.6161   -3.2453 H         1 UNK         0.0906 
     75 H75        24.7788   -5.6495   -1.5108 H         1 UNK         0.3140 
     76 H76        26.8249   -4.9490   -1.1554 H         1 UNK         0.1085 
     77 H77        27.4023   -5.1238   -4.1530 H         1 UNK         0.0836 
     78 H78        27.1518   -6.5300   -3.1741 H         1 UNK         0.0836 
     79 H79        29.3910   -4.2241   -4.5812 H         1 UNK         0.0731 
     80 H80        30.6252   -5.4498   -4.4729 H         1 UNK         0.0731 
     81 H81        32.8228   -4.5635   -4.1661 H         1 UNK         0.1312 
     82 H82        33.4057   -0.6995   -2.3993 H         1 UNK         0.1406 
     83 H83        29.4904   -2.4143   -2.5461 H         1 UNK         0.1631 
     84 H84        31.5525    0.6150   -1.6881 H         1 UNK         0.0717 
     85 H85        30.5109   -0.4048   -0.7223 H         1 UNK         0.0717 
     86 H86        30.7001    1.5803   -4.2939 H         1 UNK         0.0934 
     87 H87        30.6534   -0.1309   -4.5599 H         1 UNK         0.0934 
     88 H88        29.5657    0.8511   -6.3511 H         1 UNK         0.0739 
     89 H89        27.7080   -0.6631   -4.6646 H         1 UNK         0.3093 
     90 H90        25.7969   -1.5655   -7.6090 H         1 UNK         0.0818 
     91 H91        27.6107   -3.2532   -5.8169 H         1 UNK         0.0819 
     92 H92        26.2068   -3.8552   -6.6938 H         1 UNK         0.0819 
     93 H93        27.5939   -3.2386   -7.5765 H         1 UNK         0.0819 
     94 H94        25.4266   -2.2754   -4.8790 H         1 UNK         0.3041 
     95 H95        23.3440    0.5299   -4.0422 H         1 UNK         0.0784 
     96 H96        21.8541   -1.0003   -5.3099 H         1 UNK         0.0793 
     97 H97        22.6559   -2.4017   -4.6195 H         1 UNK         0.0793 
     98 H98        21.7321   -1.3102   -3.5860 H         1 UNK         0.0793 
     99 H99        24.0606   -1.8236   -2.5950 H         1 UNK         0.3024 
    100 H100       27.1021   -0.6571   -1.2111 H         1 UNK         0.1171 
    101 H101       25.9095   -0.9421    0.9402 H         1 UNK         0.0786 
    102 H102       25.3830    0.5377    0.1575 H         1 UNK         0.0786 
    103 H103       24.3482   -0.8834    0.1199 H         1 UNK         0.0786 
    104 H104       25.6124   -2.9542   -0.5701 H         1 UNK         0.2977 
    105 H105       26.6410    1.6299   -4.4587 H         1 UNK         0.3127 
    106 H106       26.8301    4.4522   -4.7642 H         1 UNK         0.0770 
    107 H107       24.3428    2.6687   -4.6310 H         1 UNK         0.0814 
    108 H108       24.3616    4.4121   -4.4116 H         1 UNK         0.0814 
    109 H109       25.1835    3.3789   -3.2536 H         1 UNK         0.0814 
    110 H110       25.5480    1.9309   -6.9600 H         1 UNK         0.2983 
    111 H111       24.8690    3.7495   -9.1080 H         1 UNK         0.0947 
    112 H112       24.5661    1.6182  -10.3769 H         1 UNK         0.0806 
    113 H113       23.7809    1.5212   -8.8091 H         1 UNK         0.0806 
    114 H114       25.3250    0.7135   -9.0734 H         1 UNK         0.0806 
    115 H115       27.8689    2.7336   -7.9392 H         1 UNK         0.3000 
    116 H116       29.9675    2.6865   -8.5833 H         1 UNK         0.0850 
    117 H117       30.7833    4.2666  -10.2815 H         1 UNK         0.0810 
    118 H118       29.5232    5.0384   -9.3344 H         1 UNK         0.0810 
    119 H119       29.1735    4.4492  -10.9599 H         1 UNK         0.0810 
    120 H120       28.2437    0.5424   -9.4458 H         1 UNK         0.3040 
    121 H121       29.3534   -0.4382  -12.0052 H         1 UNK         0.0766 
    122 H122       26.9417   -0.8256  -11.5025 H         1 UNK         0.0812 
    123 H123       27.3672   -1.6933  -10.0287 H         1 UNK         0.0812 
    124 H124       27.8129   -2.3483  -11.5983 H         1 UNK         0.0812 
    125 H125       29.6049   -0.9304   -8.4908 H         1 UNK         0.3205 
    126 H126       31.8180   -2.9194   -8.8652 H         1 UNK         0.0754 
    127 H127       31.3883   -3.5004   -6.4900 H         1 UNK         0.0769 
    128 H128       29.9466   -3.7571   -7.4563 H         1 UNK         0.0769 
    129 H129       30.0725   -2.3398   -6.4086 H         1 UNK         0.0769 
    130 H130       33.8181   -2.2527   -8.3805 H         1 UNK         0.2981 
    131 H131       35.5701   -1.0914   -7.7455 H         1 UNK         0.0541 
    132 H132       33.5983    0.6192   -9.3413 H         1 UNK         0.3459 
    133 H133       34.2009    2.2307   -9.0418 H         1 UNK         0.3459 
    134 H134       35.6485   -0.3411   -5.3345 H         1 UNK         0.0612 
    135 H135       33.9177   -0.5703   -5.2300 H         1 UNK         0.0612 
    136 H136       35.3181   -1.9553   -3.0796 H         1 UNK         0.0624 
    137 H137       35.1435   -3.6888   -3.1985 H         1 UNK         0.0624 
@<TRIPOS>BOND
     1    1    2 1    
     2    1   72 1    
     3    1   73 1    
     4    1   74 1    
     5    2    3 2    
     6    2    4 am   BACKBONE|DICT|INTERRES
     7    4    5 1    
     8    4   75 1    
     9    5    6 1    
    10    5   35 1    
    11    5   76 1    
    12    6    7 1    
    13    6   77 1    
    14    6   78 1    
    15    7    8 1    
    16    8    9 1    
    17    8   79 1    
    18    8   80 1    
    19    9   10 ar   
    20    9   14 ar   
    21   10   11 ar   
    22   10   81 1    
    23   11   12 ar   
    24   11   71 1    
    25   12   13 ar   
    26   12   82 1    
    27   13   14 ar   
    28   13   15 1    
    29   14   83 1    
    30   15   16 1    
    31   15   84 1    
    32   15   85 1    
    33   16   17 1    
    34   17   18 1    
    35   17   86 1    
    36   17   87 1    
    37   18   19 1    
    38   18   37 1    
    39   18   88 1    
    40   19   20 am   BACKBONE|DICT|INTERRES
    41   19   89 1    
    42   20   21 2    
    43   20   22 1    
    44   22   23 1    
    45   22   24 1    
    46   22   90 1    
    47   23   91 1    
    48   23   92 1    
    49   23   93 1    
    50   24   25 am   BACKBONE|DICT|INTERRES
    51   24   94 1    
    52   25   26 2    
    53   25   27 1    
    54   27   28 1    
    55   27   29 1    
    56   27   95 1    
    57   28   96 1    
    58   28   97 1    
    59   28   98 1    
    60   29   30 am   BACKBONE|DICT|INTERRES
    61   29   99 1    
    62   30   31 2    
    63   30   32 1    
    64   32   33 1    
    65   32   34 1    
    66   32  100 1    
    67   33  101 1    
    68   33  102 1    
    69   33  103 1    
    70   34   35 am   BACKBONE|DICT|INTERRES
    71   34  104 1    
    72   35   36 2    
    73   37   38 2    
    74   37   39 am   BACKBONE|DICT|INTERRES
    75   39   40 1    
    76   39  105 1    
    77   40   41 1    
    78   40   42 1    
    79   40  106 1    
    80   41  107 1    
    81   41  108 1    
    82   41  109 1    
    83   42   43 2    
    84   42   44 am   BACKBONE|DICT|INTERRES
    85   44   45 1    
    86   44  110 1    
    87   45   46 1    
    88   45   47 1    
    89   45  111 1    
    90   46  112 1    
    91   46  113 1    
    92   46  114 1    
    93   47   48 2    
    94   47   49 am   BACKBONE|DICT|INTERRES
    95   49   50 1    
    96   49  115 1    
    97   50   51 1    
    98   50   52 1    
    99   50  116 1    
   100   51  117 1    
   101   51  118 1    
   102   51  119 1    
   103   52   53 2    
   104   52   54 am   BACKBONE|DICT|INTERRES
   105   54   55 1    
   106   54  120 1    
   107   55   56 1    
   108   55   57 1    
   109   55  121 1    
   110   56  122 1    
   111   56  123 1    
   112   56  124 1    
   113   57   58 2    
   114   57   59 am   BACKBONE|DICT|INTERRES
   115   59   60 1    
   116   59  125 1    
   117   60   61 1    
   118   60   62 1    
   119   60  126 1    
   120   61  127 1    
   121   61  128 1    
   122   61  129 1    
   123   62   63 2    
   124   62   64 am   BACKBONE|DICT|INTERRES
   125   64   65 1    
   126   64  130 1    
   127   65   66 1    
   128   65   69 1    
   129   65  131 1    
   130   66   67 am   BACKBONE|DICT|INTERRES
   131   66   68 2    
   132   67  132 1    
   133   67  133 1    
   134   69   70 1    
   135   69  134 1    
   136   69  135 1    
   137   70   71 1    
   138   71  136 1    
   139   71  137 1    
@<TRIPOS>SUBSTRUCTURE
     1 UNK         1 GROUP             0       ****    0 ROOT    
