@<TRIPOS>MOLECULE
3R137
137   139    1
SMALL
USER_CHARGES


@<TRIPOS>ATOM
      1 CA         25.7259    1.4845   -1.0678 C.3       0 UNK        -0.2020 
      2 C          26.4239    0.1908   -1.4556 C.2       0 UNK         0.4855 
      3 O          26.3390   -0.2214   -2.6133 O.2       0 UNK        -0.5197 
      4 N          27.1342   -0.4411   -0.5099 N.am      1 UNK        -0.4892 
      5 CA         27.7926   -1.7432   -0.6794 C.3       1 UNK         0.0835 
      6 C6         28.6974   -2.0686    0.5362 C.3       12 UNK        -0.0855 
      7 S7         29.6236   -3.6389    0.4021 S.3       12 UNK        -0.2931 
      8 C8         31.2196   -3.1052   -0.3005 C.3       12 UNK         0.0378 
      9 C9         31.1095   -2.7542   -1.7785 C.ar      12 UNK        -0.0802 
     10 C10        30.7219   -3.7297   -2.7037 C.ar      12 UNK        -0.0944 
     11 C11        30.6038   -3.4190   -4.0615 C.ar      12 UNK        -0.0787 
     12 C12        30.8734   -2.1159   -4.4879 C.ar      12 UNK        -0.0862 
     13 C13        31.3117   -1.1440   -3.5843 C.ar      12 UNK        -0.0733 
     14 C14        31.4211   -1.4665   -2.2276 C.ar      12 UNK        -0.0832 
     15 C15        31.6889    0.2432   -4.0927 C.3       12 UNK         0.0240 
     16 S16        30.7282    1.5938   -3.3359 S.3       12 UNK        -0.2522 
     17 C17        29.0179    1.0108   -3.5459 C.3       12 UNK        -0.0967 
     18 CA         28.4721    1.1554   -4.9890 C.3       5 UNK         0.0660 
     19 N          27.6430    0.0124   -5.3911 N.am      5 UNK        -0.4015 
     20 C          27.3303   -0.2660   -6.6665 C.2       4 UNK         0.4946 
     21 O          27.7813    0.3677   -7.6218 O.2       4 UNK        -0.5353 
     22 CA         26.3377   -1.4109   -6.9488 C.3       4 UNK         0.0277 
     23 CB         27.0603   -2.6422   -7.5132 C.3       4 UNK        -0.1981 
     24 N          25.5371   -1.8327   -5.8010 N.am      4 UNK        -0.4209 
     25 C          24.6008   -1.1078   -5.1812 C.2       3 UNK         0.4942 
     26 O          24.3629    0.0667   -5.4646 O.2       3 UNK        -0.5208 
     27 CA         23.8065   -1.7941   -4.0503 C.3       3 UNK         0.0250 
     28 CB         22.5129   -2.4265   -4.5973 C.3       3 UNK        -0.1990 
     29 N          24.5718   -2.7578   -3.2382 N.am      3 UNK        -0.4232 
     30 C          25.1434   -3.9202   -3.5916 C.2       2 UNK         0.4993 
     31 O          25.0715   -4.3951   -4.7260 O.2       2 UNK        -0.5286 
     32 CA         26.0106   -4.6172   -2.5222 C.3       2 UNK         0.0209 
     33 CB         26.7652   -5.8409   -3.0756 C.3       2 UNK        -0.1931 
     34 N          26.9857   -3.6773   -1.9619 N.am      2 UNK        -0.4546 
     35 C          26.7319   -2.8300   -0.9577 C.2       1 UNK         0.5154 
     36 O          25.6803   -2.8413   -0.3117 O.2       1 UNK        -0.5181 
     37 C          27.7105    2.4813   -5.1750 C.2       5 UNK         0.5014 
     38 O          28.3023    3.4591   -5.6314 O.2       5 UNK        -0.5248 
     39 N          26.4007    2.4796   -4.8763 N.am      6 UNK        -0.4434 
     40 CA         25.5021    3.6148   -5.1130 C.3       6 UNK         0.0363 
     41 CB         24.1724    3.3879   -4.3766 C.3       6 UNK        -0.1936 
     42 C          25.2620    3.8741   -6.6117 C.2       6 UNK         0.5081 
     43 O          25.0565    5.0229   -7.0025 O.2       6 UNK        -0.5248 
     44 N          25.3321    2.8116   -7.4262 N.am      7 UNK        -0.4718 
     45 CA         25.3060    2.8753   -8.8907 C.3       7 UNK         0.0273 
     46 CB         24.8659    1.5082   -9.4409 C.3       7 UNK        -0.1935 
     47 C          26.6576    3.2912   -9.5082 C.2       7 UNK         0.5018 
     48 O          26.6997    3.5559  -10.7103 O.2       7 UNK        -0.5186 
     49 N          27.7251    3.3277   -8.6938 N.am      8 UNK        -0.4240 
     50 CA         29.1204    3.6153   -9.0463 C.3       8 UNK         0.0235 
     51 CB         29.2837    5.0845   -9.4913 C.3       8 UNK        -0.2000 
     52 C          29.7048    2.6045  -10.0534 C.2       8 UNK         0.4941 
     53 O          30.3881    3.0005  -11.0010 O.2       8 UNK        -0.5273 
     54 N          29.4139    1.3145   -9.8378 N.am      9 UNK        -0.4262 
     55 CA         29.9002    0.2034  -10.6570 C.3       9 UNK         0.0264 
     56 CB         29.0559   -1.0393  -10.3388 C.3       9 UNK        -0.1955 
     57 C          31.3883   -0.1030  -10.4132 C.2       9 UNK         0.5031 
     58 O          31.9549    0.3070   -9.3959 O.2       9 UNK        -0.5390 
     59 N          31.9693   -0.9026  -11.3202 N.am      10 UNK        -0.4204 
     60 CA         33.3551   -1.3945  -11.2843 C.3       10 UNK         0.0237 
     61 CB         33.6386   -2.1844  -12.5731 C.3       10 UNK        -0.1985 
     62 C          33.7219   -2.2376  -10.0445 C.2       10 UNK         0.4970 
     63 O          34.9103   -2.4071   -9.7687 O.2       10 UNK        -0.4914 
     64 N          32.7109   -2.7265   -9.3132 N.am      11 UNK        -0.4285 
     65 CA         32.8342   -3.3063   -7.9677 C.3       11 UNK         0.1007 
     66 C          33.4154   -2.3154   -6.9113 C.2       11 UNK         0.5703 
     67 N          33.2500   -1.0058   -7.0725 N.am      11 UNK        -0.7361 
     68 O          34.0583   -2.7380   -5.9542 O.2       11 UNK        -0.4986 
     69 C69        31.4724   -3.9155   -7.5321 C.3       12 UNK        -0.0947 
     70 S70        31.5671   -5.0561   -6.1071 S.3       12 UNK        -0.2240 
     71 C71        30.1846   -4.4928   -5.0581 C.3       12 UNK         0.0194 
     72 H72        26.1274    2.3151   -1.6474 H         1 UNK         0.0906 
     73 H73        24.6589    1.4085   -1.2750 H         1 UNK         0.0906 
     74 H74        25.8511    1.7151   -0.0102 H         1 UNK         0.0906 
     75 H75        27.1512   -0.0622    0.4262 H         1 UNK         0.3140 
     76 H76        28.4321   -1.6636   -1.5602 H         1 UNK         0.1085 
     77 H77        29.4093   -1.2567    0.6941 H         1 UNK         0.0836 
     78 H78        28.0962   -2.1160    1.4462 H         1 UNK         0.0836 
     79 H79        31.9394   -3.9172   -0.1880 H         1 UNK         0.0731 
     80 H80        31.6120   -2.2680    0.2789 H         1 UNK         0.0731 
     81 H81        30.5086   -4.7330   -2.3597 H         1 UNK         0.1312 
     82 H82        30.7747   -1.8605   -5.5319 H         1 UNK         0.1406 
     83 H83        31.7493   -0.7114   -1.5260 H         1 UNK         0.1631 
     84 H84        31.5661    0.3036   -5.1748 H         1 UNK         0.0717 
     85 H85        32.7483    0.4139   -3.8977 H         1 UNK         0.0717 
     86 H86        28.9682   -0.0259   -3.2166 H         1 UNK         0.0934 
     87 H87        28.4094    1.5638   -2.8300 H         1 UNK         0.0934 
     88 H88        29.3203    1.1784   -5.6769 H         1 UNK         0.0739 
     89 H89        27.1951   -0.5066   -4.6451 H         1 UNK         0.3093 
     90 H90        25.6383   -1.0540   -7.7064 H         1 UNK         0.0818 
     91 H91        27.8979   -2.9393   -6.8849 H         1 UNK         0.0819 
     92 H92        26.3889   -3.4965   -7.6050 H         1 UNK         0.0819 
     93 H93        27.4474   -2.4428   -8.5098 H         1 UNK         0.0819 
     94 H94        25.6080   -2.8084   -5.5215 H         1 UNK         0.3041 
     95 H95        23.5187   -0.9991   -3.3605 H         1 UNK         0.0784 
     96 H96        21.9061   -1.6826   -5.1155 H         1 UNK         0.0793 
     97 H97        22.7186   -3.2275   -5.3080 H         1 UNK         0.0793 
     98 H98        21.9031   -2.8392   -3.7936 H         1 UNK         0.0793 
     99 H99        24.7530   -2.4481   -2.2904 H         1 UNK         0.3024 
    100 H100       25.3378   -4.9660   -1.7351 H         1 UNK         0.1171 
    101 H101       27.4237   -5.5705   -3.9014 H         1 UNK         0.0786 
    102 H102       27.3711   -6.3162   -2.3040 H         1 UNK         0.0786 
    103 H103       26.0684   -6.5931   -3.4480 H         1 UNK         0.0786 
    104 H104       27.8660   -3.6002   -2.4510 H         1 UNK         0.2977 
    105 H105       25.9732    1.6229   -4.5456 H         1 UNK         0.3127 
    106 H106       25.9719    4.5084   -4.6963 H         1 UNK         0.0770 
    107 H107       23.6433    2.5122   -4.7531 H         1 UNK         0.0814 
    108 H108       23.5092    4.2448   -4.5017 H         1 UNK         0.0814 
    109 H109       24.3270    3.2534   -3.3063 H         1 UNK         0.0814 
    110 H110       25.4687    1.9002   -7.0107 H         1 UNK         0.2983 
    111 H111       24.5660    3.6197   -9.1931 H         1 UNK         0.0947 
    112 H112       24.7064    1.5580  -10.5188 H         1 UNK         0.0806 
    113 H113       23.9305    1.1756   -8.9903 H         1 UNK         0.0806 
    114 H114       25.6199    0.7415   -9.2644 H         1 UNK         0.0806 
    115 H115       27.5746    3.0888   -7.7221 H         1 UNK         0.3000 
    116 H116       29.6953    3.4865   -8.1278 H         1 UNK         0.0850 
    117 H117       30.3359    5.3349   -9.6320 H         1 UNK         0.0810 
    118 H118       28.8854    5.7707   -8.7439 H         1 UNK         0.0810 
    119 H119       28.7741    5.2820  -10.4348 H         1 UNK         0.0810 
    120 H120       28.8544    1.0646   -9.0246 H         1 UNK         0.3040 
    121 H121       29.7634    0.4669  -11.7081 H         1 UNK         0.0766 
    122 H122       27.9891   -0.8294  -10.4221 H         1 UNK         0.0812 
    123 H123       29.2535   -1.3912   -9.3259 H         1 UNK         0.0812 
    124 H124       29.2774   -1.8608  -11.0209 H         1 UNK         0.0812 
    125 H125       31.4174   -1.2009  -12.1123 H         1 UNK         0.3205 
    126 H126       34.0066   -0.5183  -11.2707 H         1 UNK         0.0754 
    127 H127       34.6716   -2.5348  -12.5990 H         1 UNK         0.0769 
    128 H128       33.4881   -1.5677  -13.4595 H         1 UNK         0.0769 
    129 H129       32.9956   -3.0614  -12.6588 H         1 UNK         0.0769 
    130 H130       31.7725   -2.5409   -9.6292 H         1 UNK         0.2981 
    131 H131       33.5515   -4.1248   -8.0519 H         1 UNK         0.0541 
    132 H132       33.6651   -0.3791   -6.4038 H         1 UNK         0.3459 
    133 H133       32.7640   -0.6287   -7.8811 H         1 UNK         0.3459 
    134 H134       30.7418   -3.1278   -7.3480 H         1 UNK         0.0612 
    135 H135       31.0593   -4.5016   -8.3546 H         1 UNK         0.0612 
    136 H136       29.7978   -5.3628   -4.5258 H         1 UNK         0.0624 
    137 H137       29.3634   -4.1347   -5.6760 H         1 UNK         0.0624 
@<TRIPOS>BOND
     1    1    2 1    
     2    1   72 1    
     3    1   73 1    
     4    1   74 1    
     5    2    3 2    
     6    2    4 am   BACKBONE|DICT|INTERRES
     7    4    5 1    
     8    4   75 1    
     9    5    6 1    
    10    5   35 1    
    11    5   76 1    
    12    6    7 1    
    13    6   77 1    
    14    6   78 1    
    15    7    8 1    
    16    8    9 1    
    17    8   79 1    
    18    8   80 1    
    19    9   10 ar   
    20    9   14 ar   
    21   10   11 ar   
    22   10   81 1    
    23   11   12 ar   
    24   11   71 1    
    25   12   13 ar   
    26   12   82 1    
    27   13   14 ar   
    28   13   15 1    
    29   14   83 1    
    30   15   16 1    
    31   15   84 1    
    32   15   85 1    
    33   16   17 1    
    34   17   18 1    
    35   17   86 1    
    36   17   87 1    
    37   18   19 1    
    38   18   37 1    
    39   18   88 1    
    40   19   20 am   BACKBONE|DICT|INTERRES
    41   19   89 1    
    42   20   21 2    
    43   20   22 1    
    44   22   23 1    
    45   22   24 1    
    46   22   90 1    
    47   23   91 1    
    48   23   92 1    
    49   23   93 1    
    50   24   25 am   BACKBONE|DICT|INTERRES
    51   24   94 1    
    52   25   26 2    
    53   25   27 1    
    54   27   28 1    
    55   27   29 1    
    56   27   95 1    
    57   28   96 1    
    58   28   97 1    
    59   28   98 1    
    60   29   30 am   BACKBONE|DICT|INTERRES
    61   29   99 1    
    62   30   31 2    
    63   30   32 1    
    64   32   33 1    
    65   32   34 1    
    66   32  100 1    
    67   33  101 1    
    68   33  102 1    
    69   33  103 1    
    70   34   35 am   BACKBONE|DICT|INTERRES
    71   34  104 1    
    72   35   36 2    
    73   37   38 2    
    74   37   39 am   BACKBONE|DICT|INTERRES
    75   39   40 1    
    76   39  105 1    
    77   40   41 1    
    78   40   42 1    
    79   40  106 1    
    80   41  107 1    
    81   41  108 1    
    82   41  109 1    
    83   42   43 2    
    84   42   44 am   BACKBONE|DICT|INTERRES
    85   44   45 1    
    86   44  110 1    
    87   45   46 1    
    88   45   47 1    
    89   45  111 1    
    90   46  112 1    
    91   46  113 1    
    92   46  114 1    
    93   47   48 2    
    94   47   49 am   BACKBONE|DICT|INTERRES
    95   49   50 1    
    96   49  115 1    
    97   50   51 1    
    98   50   52 1    
    99   50  116 1    
   100   51  117 1    
   101   51  118 1    
   102   51  119 1    
   103   52   53 2    
   104   52   54 am   BACKBONE|DICT|INTERRES
   105   54   55 1    
   106   54  120 1    
   107   55   56 1    
   108   55   57 1    
   109   55  121 1    
   110   56  122 1    
   111   56  123 1    
   112   56  124 1    
   113   57   58 2    
   114   57   59 am   BACKBONE|DICT|INTERRES
   115   59   60 1    
   116   59  125 1    
   117   60   61 1    
   118   60   62 1    
   119   60  126 1    
   120   61  127 1    
   121   61  128 1    
   122   61  129 1    
   123   62   63 2    
   124   62   64 am   BACKBONE|DICT|INTERRES
   125   64   65 1    
   126   64  130 1    
   127   65   66 1    
   128   65   69 1    
   129   65  131 1    
   130   66   67 am   BACKBONE|DICT|INTERRES
   131   66   68 2    
   132   67  132 1    
   133   67  133 1    
   134   69   70 1    
   135   69  134 1    
   136   69  135 1    
   137   70   71 1    
   138   71  136 1    
   139   71  137 1    
@<TRIPOS>SUBSTRUCTURE
     1 UNK         1 GROUP             0       ****    0 ROOT    
