@<TRIPOS>MOLECULE
3R137
137   139    1
SMALL
USER_CHARGES


@<TRIPOS>ATOM
      1 CA         24.2558   -0.5271   -7.2712 C.3       0 UNK        -0.2020 
      2 C          24.1911   -1.8625   -6.5466 C.2       0 UNK         0.4855 
      3 O          23.1825   -2.5636   -6.6394 O.2       0 UNK        -0.5197 
      4 N          25.2517   -2.2123   -5.8106 N.am      1 UNK        -0.4892 
      5 CA         25.3891   -3.4347   -5.0071 C.3       1 UNK         0.0835 
      6 C6         26.8699   -3.7232   -4.6527 C.3       12 UNK        -0.0855 
      7 S7         27.8816   -4.0647   -6.1282 S.3       12 UNK        -0.2931 
      8 C8         29.1456   -5.1753   -5.4386 C.3       12 UNK         0.0378 
      9 C9         30.1781   -4.4176   -4.6159 C.ar      12 UNK        -0.0802 
     10 C10        31.2735   -3.8286   -5.2541 C.ar      12 UNK        -0.0944 
     11 C11        32.2619   -3.1775   -4.5124 C.ar      12 UNK        -0.0787 
     12 C12        32.1404   -3.1037   -3.1221 C.ar      12 UNK        -0.0862 
     13 C13        31.0412   -3.6737   -2.4701 C.ar      12 UNK        -0.0733 
     14 C14        30.0640   -4.3342   -3.2230 C.ar      12 UNK        -0.0832 
     15 C15        30.9345   -3.5999   -0.9495 C.3       12 UNK         0.0240 
     16 S16        29.6516   -2.4373   -0.3695 S.3       12 UNK        -0.2522 
     17 C17        30.1041   -0.9008   -1.2416 C.3       12 UNK        -0.0967 
     18 CA         29.0937   -0.6210   -2.3843 C.3       5 UNK         0.0660 
     19 N          27.8814    0.0425   -1.8894 N.am      5 UNK        -0.4015 
     20 C          26.7105    0.1024   -2.5364 C.2       4 UNK         0.4946 
     21 O          26.4905   -0.4509   -3.6180 O.2       4 UNK        -0.5353 
     22 CA         25.6148    0.9644   -1.9006 C.3       4 UNK         0.0277 
     23 CB         25.9125    2.4598   -2.1403 C.3       4 UNK        -0.1981 
     24 N          24.3494    0.5823   -2.5194 N.am      4 UNK        -0.4209 
     25 C          23.1225    0.9933   -2.1824 C.2       3 UNK         0.4942 
     26 O          22.8810    1.7667   -1.2548 O.2       3 UNK        -0.5208 
     27 CA         21.9636    0.4405   -3.0286 C.3       3 UNK         0.0250 
     28 CB         21.8436    1.2126   -4.3533 C.3       3 UNK        -0.1990 
     29 N          22.1053   -0.9899   -3.3095 N.am      3 UNK        -0.4232 
     30 C          21.9407   -1.9632   -2.4016 C.2       2 UNK         0.4993 
     31 O          21.6142   -1.7639   -1.2311 O.2       2 UNK        -0.5286 
     32 CA         22.1729   -3.4053   -2.8812 C.3       2 UNK         0.0209 
     33 CB         20.8585   -4.0272   -3.3803 C.3       2 UNK        -0.1931 
     34 N          23.1812   -3.4896   -3.9404 N.am      2 UNK        -0.4546 
     35 C          24.5007   -3.3762   -3.7441 C.2       1 UNK         0.5154 
     36 O          25.0052   -3.2234   -2.6300 O.2       1 UNK        -0.5181 
     37 C          29.7102    0.1638   -3.5604 C.2       5 UNK         0.5014 
     38 O          30.7197    0.8519   -3.4007 O.2       5 UNK        -0.5248 
     39 N          29.0545    0.0460   -4.7144 N.am      6 UNK        -0.4434 
     40 CA         29.4384    0.5541   -6.0171 C.3       6 UNK         0.0363 
     41 CB         29.0064    2.0251   -6.1569 C.3       6 UNK        -0.1936 
     42 C          28.7199   -0.3427   -7.0264 C.2       6 UNK         0.5081 
     43 O          27.5017   -0.5038   -6.9259 O.2       6 UNK        -0.5248 
     44 N          29.4605   -0.9047   -7.9852 N.am      7 UNK        -0.4718 
     45 CA         28.9421   -1.8027   -9.0219 C.3       7 UNK         0.0273 
     46 CB         30.0249   -2.8432   -9.3624 C.3       7 UNK        -0.1935 
     47 C          28.4849   -0.9910  -10.2459 C.2       7 UNK         0.5018 
     48 O          29.0025   -1.1875  -11.3462 O.2       7 UNK        -0.5186 
     49 N          27.5793   -0.0306  -10.0000 N.am      8 UNK        -0.4240 
     50 CA         27.1442    1.0521  -10.9006 C.3       8 UNK         0.0235 
     51 CB         26.4551    0.4943  -12.1638 C.3       8 UNK        -0.2000 
     52 C          28.2607    2.0687  -11.2387 C.2       8 UNK         0.4941 
     53 O          28.0739    2.9165  -12.1126 O.2       8 UNK        -0.5273 
     54 N          29.3832    1.9842  -10.5196 N.am      9 UNK        -0.4262 
     55 CA         30.5741    2.8192  -10.5712 C.3       9 UNK         0.0264 
     56 CB         31.4213    2.4729  -11.8085 C.3       9 UNK        -0.1955 
     57 C          31.3417    2.5270   -9.2772 C.2       9 UNK         0.5031 
     58 O          31.1696    1.4432   -8.7079 O.2       9 UNK        -0.5390 
     59 N          32.1698    3.4762   -8.8263 N.am      10 UNK        -0.4204 
     60 CA         32.8751    3.4567   -7.5362 C.3       10 UNK         0.0237 
     61 CB         33.3139    4.8934   -7.1926 C.3       10 UNK        -0.1985 
     62 C          34.0395    2.4426   -7.4469 C.2       10 UNK         0.4970 
     63 O          35.1340    2.8023   -7.0095 O.2       10 UNK        -0.4914 
     64 N          33.7752    1.1950   -7.8507 N.am      11 UNK        -0.4285 
     65 CA         34.6535    0.0162   -7.7550 C.3       11 UNK         0.1007 
     66 C          35.9635    0.0951   -8.5986 C.2       11 UNK         0.5703 
     67 N          36.0597    0.9767   -9.5869 N.am      11 UNK        -0.7361 
     68 O          36.8952   -0.6772   -8.3839 O.2       11 UNK        -0.4986 
     69 C69        34.8988   -0.4176   -6.2805 C.3       12 UNK        -0.0947 
     70 S70        33.3424   -0.7884   -5.3977 S.3       12 UNK        -0.2240 
     71 C71        33.4806   -2.5896   -5.2074 C.3       12 UNK         0.0194 
     72 H72        24.6385   -0.6669   -8.2817 H         1 UNK         0.0906 
     73 H73        23.2643   -0.0802   -7.3386 H         1 UNK         0.0906 
     74 H74        24.9060    0.1760   -6.7504 H         1 UNK         0.0906 
     75 H75        26.0551   -1.5910   -5.7915 H         1 UNK         0.3140 
     76 H76        25.0271   -4.2737   -5.6057 H         1 UNK         0.1085 
     77 H77        26.9321   -4.5843   -3.9847 H         1 UNK         0.0836 
     78 H78        27.3138   -2.8872   -4.1125 H         1 UNK         0.0836 
     79 H79        29.6435   -5.6873   -6.2634 H         1 UNK         0.0731 
     80 H80        28.6734   -5.9582   -4.8432 H         1 UNK         0.0731 
     81 H81        31.3652   -3.8943   -6.3294 H         1 UNK         0.1312 
     82 H82        32.9086   -2.6025   -2.5488 H         1 UNK         0.1406 
     83 H83        29.2199   -4.7880   -2.7215 H         1 UNK         0.1631 
     84 H84        31.8916   -3.3112   -0.5121 H         1 UNK         0.0717 
     85 H85        30.7114   -4.5927   -0.5561 H         1 UNK         0.0717 
     86 H86        30.1357   -0.0738   -0.5304 H         1 UNK         0.0934 
     87 H87        31.1251   -0.9982   -1.6133 H         1 UNK         0.0934 
     88 H88        28.7973   -1.5844   -2.8051 H         1 UNK         0.0739 
     89 H89        27.9789    0.5436   -1.0187 H         1 UNK         0.3093 
     90 H90        25.5658    0.7519   -0.8309 H         1 UNK         0.0818 
     91 H91        26.8790    2.7436   -1.7224 H         1 UNK         0.0819 
     92 H92        25.9362    2.6970   -3.2049 H         1 UNK         0.0819 
     93 H93        25.1664    3.1017   -1.6725 H         1 UNK         0.0819 
     94 H94        24.4711   -0.0779   -3.2785 H         1 UNK         0.3041 
     95 H95        21.0395    0.5872   -2.4649 H         1 UNK         0.0784 
     96 H96        21.7095    2.2797   -4.1700 H         1 UNK         0.0793 
     97 H97        22.7337    1.0989   -4.9732 H         1 UNK         0.0793 
     98 H98        20.9845    0.8749   -4.9334 H         1 UNK         0.0793 
     99 H99        22.3565   -1.2545   -4.2508 H         1 UNK         0.3024 
    100 H100       22.5222   -3.9833   -2.0221 H         1 UNK         0.1171 
    101 H101       20.4659   -3.5003   -4.2510 H         1 UNK         0.0786 
    102 H102       20.9943   -5.0737   -3.6542 H         1 UNK         0.0786 
    103 H103       20.0917   -3.9935   -2.6049 H         1 UNK         0.0786 
    104 H104       22.8532   -3.5317   -4.9007 H         1 UNK         0.2977 
    105 H105       28.1712   -0.4596   -4.7098 H         1 UNK         0.3127 
    106 H106       30.5197    0.4673   -6.1436 H         1 UNK         0.0770 
    107 H107       29.2019    2.4010   -7.1604 H         1 UNK         0.0814 
    108 H108       29.5482    2.6632   -5.4589 H         1 UNK         0.0814 
    109 H109       27.9396    2.1492   -5.9661 H         1 UNK         0.0814 
    110 H110       30.4330   -0.6345   -8.0615 H         1 UNK         0.2983 
    111 H111       28.0693   -2.3411   -8.6452 H         1 UNK         0.0947 
    112 H112       29.6732   -3.5378  -10.1264 H         1 UNK         0.0806 
    113 H113       30.2885   -3.4360   -8.4868 H         1 UNK         0.0806 
    114 H114       30.9347   -2.3736   -9.7387 H         1 UNK         0.0806 
    115 H115       27.2421    0.0316   -9.0451 H         1 UNK         0.3000 
    116 H116       26.3942    1.6152  -10.3430 H         1 UNK         0.0850 
    117 H117       27.1609   -0.0102  -12.8240 H         1 UNK         0.0810 
    118 H118       25.9918    1.2953  -12.7411 H         1 UNK         0.0810 
    119 H119       25.6681   -0.2147  -11.9069 H         1 UNK         0.0810 
    120 H120       29.4513    1.2662   -9.8079 H         1 UNK         0.3040 
    121 H121       30.2780    3.8699  -10.5917 H         1 UNK         0.0766 
    122 H122       30.8732    2.6623  -12.7315 H         1 UNK         0.0812 
    123 H123       31.7209    1.4238  -11.8085 H         1 UNK         0.0812 
    124 H124       32.3304    3.0742  -11.8441 H         1 UNK         0.0812 
    125 H125       32.2857    4.3127   -9.3807 H         1 UNK         0.3205 
    126 H126       32.1546    3.1494   -6.7746 H         1 UNK         0.0754 
    127 H127       33.7711    4.9395   -6.2030 H         1 UNK         0.0769 
    128 H128       32.4647    5.5770   -7.1820 H         1 UNK         0.0769 
    129 H129       34.0441    5.2736   -7.9081 H         1 UNK         0.0769 
    130 H130       32.8358    1.0242   -8.2028 H         1 UNK         0.2981 
    131 H131       34.0908   -0.7889   -8.2286 H         1 UNK         0.0541 
    132 H132       35.3030    1.6134   -9.7763 H         1 UNK         0.3459 
    133 H133       36.9041    1.0140  -10.1355 H         1 UNK         0.3459 
    134 H134       35.4272    0.3645   -5.7336 H         1 UNK         0.0612 
    135 H135       35.5423   -1.2978   -6.2378 H         1 UNK         0.0612 
    136 H136       34.3776   -2.8238   -4.6321 H         1 UNK         0.0624 
    137 H137       33.6148   -3.0438   -6.1906 H         1 UNK         0.0624 
@<TRIPOS>BOND
     1    1    2 1    
     2    1   72 1    
     3    1   73 1    
     4    1   74 1    
     5    2    3 2    
     6    2    4 am   BACKBONE|DICT|INTERRES
     7    4    5 1    
     8    4   75 1    
     9    5    6 1    
    10    5   35 1    
    11    5   76 1    
    12    6    7 1    
    13    6   77 1    
    14    6   78 1    
    15    7    8 1    
    16    8    9 1    
    17    8   79 1    
    18    8   80 1    
    19    9   10 ar   
    20    9   14 ar   
    21   10   11 ar   
    22   10   81 1    
    23   11   12 ar   
    24   11   71 1    
    25   12   13 ar   
    26   12   82 1    
    27   13   14 ar   
    28   13   15 1    
    29   14   83 1    
    30   15   16 1    
    31   15   84 1    
    32   15   85 1    
    33   16   17 1    
    34   17   18 1    
    35   17   86 1    
    36   17   87 1    
    37   18   19 1    
    38   18   37 1    
    39   18   88 1    
    40   19   20 am   BACKBONE|DICT|INTERRES
    41   19   89 1    
    42   20   21 2    
    43   20   22 1    
    44   22   23 1    
    45   22   24 1    
    46   22   90 1    
    47   23   91 1    
    48   23   92 1    
    49   23   93 1    
    50   24   25 am   BACKBONE|DICT|INTERRES
    51   24   94 1    
    52   25   26 2    
    53   25   27 1    
    54   27   28 1    
    55   27   29 1    
    56   27   95 1    
    57   28   96 1    
    58   28   97 1    
    59   28   98 1    
    60   29   30 am   BACKBONE|DICT|INTERRES
    61   29   99 1    
    62   30   31 2    
    63   30   32 1    
    64   32   33 1    
    65   32   34 1    
    66   32  100 1    
    67   33  101 1    
    68   33  102 1    
    69   33  103 1    
    70   34   35 am   BACKBONE|DICT|INTERRES
    71   34  104 1    
    72   35   36 2    
    73   37   38 2    
    74   37   39 am   BACKBONE|DICT|INTERRES
    75   39   40 1    
    76   39  105 1    
    77   40   41 1    
    78   40   42 1    
    79   40  106 1    
    80   41  107 1    
    81   41  108 1    
    82   41  109 1    
    83   42   43 2    
    84   42   44 am   BACKBONE|DICT|INTERRES
    85   44   45 1    
    86   44  110 1    
    87   45   46 1    
    88   45   47 1    
    89   45  111 1    
    90   46  112 1    
    91   46  113 1    
    92   46  114 1    
    93   47   48 2    
    94   47   49 am   BACKBONE|DICT|INTERRES
    95   49   50 1    
    96   49  115 1    
    97   50   51 1    
    98   50   52 1    
    99   50  116 1    
   100   51  117 1    
   101   51  118 1    
   102   51  119 1    
   103   52   53 2    
   104   52   54 am   BACKBONE|DICT|INTERRES
   105   54   55 1    
   106   54  120 1    
   107   55   56 1    
   108   55   57 1    
   109   55  121 1    
   110   56  122 1    
   111   56  123 1    
   112   56  124 1    
   113   57   58 2    
   114   57   59 am   BACKBONE|DICT|INTERRES
   115   59   60 1    
   116   59  125 1    
   117   60   61 1    
   118   60   62 1    
   119   60  126 1    
   120   61  127 1    
   121   61  128 1    
   122   61  129 1    
   123   62   63 2    
   124   62   64 am   BACKBONE|DICT|INTERRES
   125   64   65 1    
   126   64  130 1    
   127   65   66 1    
   128   65   69 1    
   129   65  131 1    
   130   66   67 am   BACKBONE|DICT|INTERRES
   131   66   68 2    
   132   67  132 1    
   133   67  133 1    
   134   69   70 1    
   135   69  134 1    
   136   69  135 1    
   137   70   71 1    
   138   71  136 1    
   139   71  137 1    
@<TRIPOS>SUBSTRUCTURE
     1 UNK         1 GROUP             0       ****    0 ROOT    
