@<TRIPOS>MOLECULE
3R137
137   139    1
SMALL
USER_CHARGES


@<TRIPOS>ATOM
      1 CA         28.3021    0.4854    2.8767 C.3       0 UNK        -0.2020 
      2 C          27.9583    0.1341    1.4367 C.2       0 UNK         0.4855 
      3 O          27.2145    0.8709    0.7880 O.2       0 UNK        -0.5197 
      4 N          28.5009   -0.9796    0.9293 N.am      1 UNK        -0.4892 
      5 CA         28.2392   -1.4959   -0.4187 C.3       1 UNK         0.0835 
      6 C6         29.3272   -2.5031   -0.8665 C.3       12 UNK        -0.0855 
      7 S7         30.9101   -1.6672   -1.2302 S.3       12 UNK        -0.2931 
      8 C8         30.6750   -1.1143   -2.9548 C.3       12 UNK         0.0378 
      9 C9         30.8514   -2.2478   -3.9546 C.ar      12 UNK        -0.0802 
     10 C10        32.1136   -2.5198   -4.4891 C.ar      12 UNK        -0.0944 
     11 C11        32.2892   -3.5616   -5.4049 C.ar      12 UNK        -0.0787 
     12 C12        31.1900   -4.3445   -5.7722 C.ar      12 UNK        -0.0862 
     13 C13        29.9239   -4.0941   -5.2344 C.ar      12 UNK        -0.0733 
     14 C14        29.7594   -3.0280   -4.3441 C.ar      12 UNK        -0.0832 
     15 C15        28.7649   -5.0318   -5.5593 C.3       12 UNK         0.0240 
     16 S16        27.1785   -4.1812   -5.8318 S.3       12 UNK        -0.2522 
     17 C17        27.4415   -3.4664   -7.4887 C.3       12 UNK        -0.0967 
     18 CA         26.8167   -2.0633   -7.6781 C.3       5 UNK         0.0660 
     19 N          25.4172   -1.9968   -7.2446 N.am      5 UNK        -0.4015 
     20 C          24.3647   -1.9511   -8.0723 C.2       4 UNK         0.4946 
     21 O          24.4586   -1.9339   -9.3002 O.2       4 UNK        -0.5353 
     22 CA         22.9578   -1.9274   -7.4446 C.3       4 UNK         0.0277 
     23 CB         22.3519   -3.3405   -7.4480 C.3       4 UNK        -0.1981 
     24 N          22.9035   -1.3888   -6.0836 N.am      4 UNK        -0.4209 
     25 C          23.2174   -0.1338   -5.7349 C.2       3 UNK         0.4942 
     26 O          23.6044    0.7259   -6.5268 O.2       3 UNK        -0.5208 
     27 CA         23.1247    0.2108   -4.2377 C.3       3 UNK         0.0250 
     28 CB         21.7191    0.7324   -3.8984 C.3       3 UNK        -0.1990 
     29 N          23.4809   -0.8732   -3.3076 N.am      3 UNK        -0.4232 
     30 C          24.6185   -1.5808   -3.3382 C.2       2 UNK         0.4993 
     31 O          25.4326   -1.5362   -4.2642 O.2       2 UNK        -0.5286 
     32 CA         24.9389   -2.4625   -2.1299 C.3       2 UNK         0.0209 
     33 CB         24.8110   -3.9555   -2.4745 C.3       2 UNK        -0.1931 
     34 N          26.3156   -2.1429   -1.7720 N.am      2 UNK        -0.4546 
     35 C          26.8221   -2.0994   -0.5361 C.2       1 UNK         0.5154 
     36 O          26.2248   -2.5046    0.4651 O.2       1 UNK        -0.5181 
     37 C          27.6687   -0.9333   -7.0739 C.2       5 UNK         0.5014 
     38 O          28.6374   -0.5251   -7.7159 O.2       5 UNK        -0.5248 
     39 N          27.2851   -0.3837   -5.9123 N.am      6 UNK        -0.4434 
     40 CA         27.9164    0.7931   -5.3066 C.3       6 UNK         0.0363 
     41 CB         27.3261    1.0432   -3.9103 C.3       6 UNK        -0.1936 
     42 C          27.7848    2.0603   -6.1689 C.2       6 UNK         0.5081 
     43 O          28.7020    2.8791   -6.1736 O.2       6 UNK        -0.5248 
     44 N          26.6609    2.1966   -6.8862 N.am      7 UNK        -0.4718 
     45 CA         26.4364    3.2855   -7.8373 C.3       7 UNK         0.0273 
     46 CB         24.9275    3.5547   -7.9563 C.3       7 UNK        -0.1935 
     47 C          27.0374    2.9848   -9.2205 C.2       7 UNK         0.5018 
     48 O          27.5593    3.8986   -9.8601 O.2       7 UNK        -0.5186 
     49 N          26.9178    1.7284   -9.6736 N.am      8 UNK        -0.4240 
     50 CA         27.2635    1.3135  -11.0352 C.3       8 UNK         0.0235 
     51 CB         26.4235    0.0879  -11.4306 C.3       8 UNK        -0.2000 
     52 C          28.7599    1.0278  -11.2320 C.2       8 UNK         0.4941 
     53 O          29.3232    1.4678  -12.2352 O.2       8 UNK        -0.5273 
     54 N          29.3661    0.2794  -10.3018 N.am      9 UNK        -0.4262 
     55 CA         30.7637   -0.1526  -10.3623 C.3       9 UNK         0.0264 
     56 CB         30.8543   -1.6623  -10.0747 C.3       9 UNK        -0.1955 
     57 C          31.6261    0.6339   -9.3705 C.2       9 UNK         0.5031 
     58 O          32.7105    1.0821   -9.7465 O.2       9 UNK        -0.5390 
     59 N          31.1409    0.7765   -8.1273 N.am      10 UNK        -0.4204 
     60 CA         31.7402    1.4667   -6.9730 C.3       10 UNK         0.0237 
     61 CB         31.9341    2.9693   -7.2576 C.3       10 UNK        -0.1985 
     62 C          33.0404    0.8417   -6.4319 C.2       10 UNK         0.4970 
     63 O          33.1888    0.7391   -5.2142 O.2       10 UNK        -0.4914 
     64 N          33.9509    0.4554   -7.3327 N.am      11 UNK        -0.4285 
     65 CA         35.2681   -0.1490   -7.0716 C.3       11 UNK         0.1007 
     66 C          36.2955    0.8019   -6.3832 C.2       11 UNK         0.5703 
     67 N          36.0806    2.1124   -6.3723 N.am      11 UNK        -0.7361 
     68 O          37.3239    0.3541   -5.8803 O.2       11 UNK        -0.4986 
     69 C69        35.1782   -1.5388   -6.3791 C.3       12 UNK        -0.0947 
     70 S70        34.1471   -2.7337   -7.2971 S.3       12 UNK        -0.2240 
     71 C71        33.6694   -3.8771   -5.9646 C.3       12 UNK         0.0194 
     72 H72        28.7785    1.4644    2.9207 H         1 UNK         0.0906 
     73 H73        27.3957    0.5197    3.4807 H         1 UNK         0.0906 
     74 H74        28.9800   -0.2416    3.3238 H         1 UNK         0.0906 
     75 H75        29.0935   -1.5548    1.5106 H         1 UNK         0.3140 
     76 H76        28.2644   -0.6406   -1.0969 H         1 UNK         0.1085 
     77 H77        29.4995   -3.2470   -0.0864 H         1 UNK         0.0836 
     78 H78        29.0178   -3.0762   -1.7386 H         1 UNK         0.0836 
     79 H79        31.3975   -0.3247   -3.1687 H         1 UNK         0.0731 
     80 H80        29.6930   -0.6571   -3.0689 H         1 UNK         0.0731 
     81 H81        32.9589   -1.9198   -4.1841 H         1 UNK         0.1312 
     82 H82        31.3275   -5.1693   -6.4582 H         1 UNK         0.1406 
     83 H83        28.7799   -2.8231   -3.9377 H         1 UNK         0.1631 
     84 H84        28.6437   -5.7234   -4.7248 H         1 UNK         0.0717 
     85 H85        28.9907   -5.6433   -6.4343 H         1 UNK         0.0717 
     86 H86        28.5078   -3.4455   -7.7245 H         1 UNK         0.0934 
     87 H87        26.9985   -4.1543   -8.2104 H         1 UNK         0.0934 
     88 H88        26.8568   -1.8678   -8.7504 H         1 UNK         0.0739 
     89 H89        25.2559   -2.0201   -6.2433 H         1 UNK         0.3093 
     90 H90        22.3370   -1.2868   -8.0745 H         1 UNK         0.0818 
     91 H91        22.3474   -3.7610   -8.4548 H         1 UNK         0.0819 
     92 H92        21.3191   -3.3321   -7.0993 H         1 UNK         0.0819 
     93 H93        22.9176   -4.0237   -6.8129 H         1 UNK         0.0819 
     94 H94        22.6130   -2.0231   -5.3538 H         1 UNK         0.3041 
     95 H95        23.8325    1.0225   -4.0600 H         1 UNK         0.0784 
     96 H96        21.4353    1.5520   -4.5605 H         1 UNK         0.0793 
     97 H97        20.9631   -0.0470   -4.0020 H         1 UNK         0.0793 
     98 H98        21.6715    1.1142   -2.8783 H         1 UNK         0.0793 
     99 H99        22.8639   -0.9926   -2.5167 H         1 UNK         0.3024 
    100 H100       24.2692   -2.2139   -1.3031 H         1 UNK         0.1171 
    101 H101       25.0692   -4.5811   -1.6200 H         1 UNK         0.0786 
    102 H102       23.7892   -4.2041   -2.7634 H         1 UNK         0.0786 
    103 H103       25.4633   -4.2366   -3.3020 H         1 UNK         0.0786 
    104 H104       26.8540   -1.7919   -2.5525 H         1 UNK         0.2977 
    105 H105       26.5163   -0.8005   -5.3877 H         1 UNK         0.3127 
    106 H106       28.9798    0.5746   -5.1948 H         1 UNK         0.0770 
    107 H107       26.2628    1.2786   -3.9591 H         1 UNK         0.0814 
    108 H108       27.8234    1.8820   -3.4212 H         1 UNK         0.0814 
    109 H109       27.4457    0.1762   -3.2648 H         1 UNK         0.0814 
    110 H110       25.9275    1.5062   -6.7892 H         1 UNK         0.2983 
    111 H111       26.9090    4.1959   -7.4607 H         1 UNK         0.0947 
    112 H112       24.7321    4.3883   -8.6323 H         1 UNK         0.0806 
    113 H113       24.4936    3.8124   -6.9899 H         1 UNK         0.0806 
    114 H114       24.3886    2.6885   -8.3425 H         1 UNK         0.0806 
    115 H115       26.4793    1.0426   -9.0788 H         1 UNK         0.3000 
    116 H116       26.9948    2.1237  -11.7174 H         1 UNK         0.0850 
    117 H117       26.6171   -0.1979  -12.4654 H         1 UNK         0.0810 
    118 H118       25.3558    0.2923  -11.3472 H         1 UNK         0.0810 
    119 H119       26.6462   -0.7794  -10.8099 H         1 UNK         0.0810 
    120 H120       28.8528    0.0041   -9.4688 H         1 UNK         0.3040 
    121 H121       31.1704    0.0178  -11.3615 H         1 UNK         0.0766 
    122 H122       30.2820   -2.2375  -10.8025 H         1 UNK         0.0812 
    123 H123       30.4825   -1.9170   -9.0816 H         1 UNK         0.0812 
    124 H124       31.8880   -2.0069  -10.1296 H         1 UNK         0.0812 
    125 H125       30.2535    0.3166   -7.9286 H         1 UNK         0.3205 
    126 H126       31.0058    1.3795   -6.1722 H         1 UNK         0.0754 
    127 H127       31.0017    3.4330   -7.5798 H         1 UNK         0.0769 
    128 H128       32.6805    3.1487   -8.0318 H         1 UNK         0.0769 
    129 H129       32.2629    3.4948   -6.3602 H         1 UNK         0.0769 
    130 H130       33.7229    0.6208   -8.3107 H         1 UNK         0.2981 
    131 H131       35.6926   -0.3204   -8.0611 H         1 UNK         0.0541 
    132 H132       35.2503    2.4965   -6.7928 H         1 UNK         0.3459 
    133 H133       36.7559    2.7199   -5.9359 H         1 UNK         0.3459 
    134 H134       36.1703   -1.9837   -6.2857 H         1 UNK         0.0612 
    135 H135       34.8025   -1.4280   -5.3626 H         1 UNK         0.0612 
    136 H136       33.6892   -4.8924   -6.3634 H         1 UNK         0.0624 
    137 H137       34.4112   -3.8568   -5.1647 H         1 UNK         0.0624 
@<TRIPOS>BOND
     1    1    2 1    
     2    1   72 1    
     3    1   73 1    
     4    1   74 1    
     5    2    3 2    
     6    2    4 am   BACKBONE|DICT|INTERRES
     7    4    5 1    
     8    4   75 1    
     9    5    6 1    
    10    5   35 1    
    11    5   76 1    
    12    6    7 1    
    13    6   77 1    
    14    6   78 1    
    15    7    8 1    
    16    8    9 1    
    17    8   79 1    
    18    8   80 1    
    19    9   10 ar   
    20    9   14 ar   
    21   10   11 ar   
    22   10   81 1    
    23   11   12 ar   
    24   11   71 1    
    25   12   13 ar   
    26   12   82 1    
    27   13   14 ar   
    28   13   15 1    
    29   14   83 1    
    30   15   16 1    
    31   15   84 1    
    32   15   85 1    
    33   16   17 1    
    34   17   18 1    
    35   17   86 1    
    36   17   87 1    
    37   18   19 1    
    38   18   37 1    
    39   18   88 1    
    40   19   20 am   BACKBONE|DICT|INTERRES
    41   19   89 1    
    42   20   21 2    
    43   20   22 1    
    44   22   23 1    
    45   22   24 1    
    46   22   90 1    
    47   23   91 1    
    48   23   92 1    
    49   23   93 1    
    50   24   25 am   BACKBONE|DICT|INTERRES
    51   24   94 1    
    52   25   26 2    
    53   25   27 1    
    54   27   28 1    
    55   27   29 1    
    56   27   95 1    
    57   28   96 1    
    58   28   97 1    
    59   28   98 1    
    60   29   30 am   BACKBONE|DICT|INTERRES
    61   29   99 1    
    62   30   31 2    
    63   30   32 1    
    64   32   33 1    
    65   32   34 1    
    66   32  100 1    
    67   33  101 1    
    68   33  102 1    
    69   33  103 1    
    70   34   35 am   BACKBONE|DICT|INTERRES
    71   34  104 1    
    72   35   36 2    
    73   37   38 2    
    74   37   39 am   BACKBONE|DICT|INTERRES
    75   39   40 1    
    76   39  105 1    
    77   40   41 1    
    78   40   42 1    
    79   40  106 1    
    80   41  107 1    
    81   41  108 1    
    82   41  109 1    
    83   42   43 2    
    84   42   44 am   BACKBONE|DICT|INTERRES
    85   44   45 1    
    86   44  110 1    
    87   45   46 1    
    88   45   47 1    
    89   45  111 1    
    90   46  112 1    
    91   46  113 1    
    92   46  114 1    
    93   47   48 2    
    94   47   49 am   BACKBONE|DICT|INTERRES
    95   49   50 1    
    96   49  115 1    
    97   50   51 1    
    98   50   52 1    
    99   50  116 1    
   100   51  117 1    
   101   51  118 1    
   102   51  119 1    
   103   52   53 2    
   104   52   54 am   BACKBONE|DICT|INTERRES
   105   54   55 1    
   106   54  120 1    
   107   55   56 1    
   108   55   57 1    
   109   55  121 1    
   110   56  122 1    
   111   56  123 1    
   112   56  124 1    
   113   57   58 2    
   114   57   59 am   BACKBONE|DICT|INTERRES
   115   59   60 1    
   116   59  125 1    
   117   60   61 1    
   118   60   62 1    
   119   60  126 1    
   120   61  127 1    
   121   61  128 1    
   122   61  129 1    
   123   62   63 2    
   124   62   64 am   BACKBONE|DICT|INTERRES
   125   64   65 1    
   126   64  130 1    
   127   65   66 1    
   128   65   69 1    
   129   65  131 1    
   130   66   67 am   BACKBONE|DICT|INTERRES
   131   66   68 2    
   132   67  132 1    
   133   67  133 1    
   134   69   70 1    
   135   69  134 1    
   136   69  135 1    
   137   70   71 1    
   138   71  136 1    
   139   71  137 1    
@<TRIPOS>SUBSTRUCTURE
     1 UNK         1 GROUP             0       ****    0 ROOT    
