@<TRIPOS>MOLECULE
3R137
137   139    1
SMALL
USER_CHARGES


@<TRIPOS>ATOM
      1 CA         26.3343   -7.4961   -2.4588 C.3       0 UNK        -0.2020 
      2 C          26.1137   -6.2356   -1.6358 C.2       0 UNK         0.4855 
      3 O          25.2290   -6.2103   -0.7791 O.2       0 UNK        -0.5197 
      4 N          26.9174   -5.1945   -1.8832 N.am      1 UNK        -0.4892 
      5 CA         26.8086   -3.8828   -1.2339 C.3       1 UNK         0.0835 
      6 C6         28.1103   -3.0600   -1.3737 C.3       12 UNK        -0.0855 
      7 S7         29.5479   -3.8809   -0.6062 S.3       12 UNK        -0.2931 
      8 C8         30.6276   -4.1657   -2.0527 C.3       12 UNK         0.0378 
      9 C9         30.9598   -2.9053   -2.8519 C.ar      12 UNK        -0.0802 
     10 C10        31.1202   -2.9966   -4.2365 C.ar      12 UNK        -0.0944 
     11 C11        31.4384   -1.8675   -4.9964 C.ar      12 UNK        -0.0787 
     12 C12        31.5755   -0.6264   -4.3656 C.ar      12 UNK        -0.0862 
     13 C13        31.3989   -0.5155   -2.9822 C.ar      12 UNK        -0.0733 
     14 C14        31.1151   -1.6602   -2.2322 C.ar      12 UNK        -0.0832 
     15 C15        31.5138    0.8312   -2.2768 C.3       12 UNK         0.0240 
     16 S16        30.2589    2.0555   -2.7924 S.3       12 UNK        -0.2522 
     17 C17        28.7069    1.0984   -2.9540 C.3       12 UNK        -0.0967 
     18 CA         28.2967    0.9855   -4.4454 C.3       5 UNK         0.0660 
     19 N          27.5283   -0.2230   -4.7389 N.am      5 UNK        -0.4015 
     20 C          27.5583   -0.8408   -5.9287 C.2       4 UNK         0.4946 
     21 O          28.2738   -0.4894   -6.8684 O.2       4 UNK        -0.5353 
     22 CA         26.6013   -2.0289   -6.1227 C.3       4 UNK         0.0277 
     23 CB         27.2454   -3.3314   -5.6225 C.3       4 UNK        -0.1981 
     24 N          25.2975   -1.8309   -5.4801 N.am      4 UNK        -0.4209 
     25 C          24.4341   -0.8645   -5.8323 C.2       3 UNK         0.4942 
     26 O          24.6495   -0.0536   -6.7303 O.2       3 UNK        -0.5208 
     27 CA         23.1280   -0.7380   -5.0321 C.3       3 UNK         0.0250 
     28 CB         22.0343   -1.6175   -5.6579 C.3       3 UNK        -0.1990 
     29 N          23.2513   -1.0574   -3.6099 N.am      3 UNK        -0.4232 
     30 C          24.1430   -0.5536   -2.7445 C.2       2 UNK         0.4993 
     31 O          25.0116    0.2715   -3.0411 O.2       2 UNK        -0.5286 
     32 CA         24.0982   -1.1207   -1.3128 C.3       2 UNK         0.0209 
     33 CB         22.7566   -1.7974   -0.9489 C.3       2 UNK        -0.1931 
     34 N          25.2074   -2.0448   -1.0417 N.am      2 UNK        -0.4546 
     35 C          25.6155   -3.0813   -1.7928 C.2       1 UNK         0.5154 
     36 O          25.1277   -3.3821   -2.8877 O.2       1 UNK        -0.5181 
     37 C          27.5493    2.2377   -4.9399 C.2       5 UNK         0.5014 
     38 O          28.1781    3.1108   -5.5375 O.2       5 UNK        -0.5248 
     39 N          26.2271    2.3023   -4.7121 N.am      6 UNK        -0.4434 
     40 CA         25.3823    3.4475   -5.0720 C.3       6 UNK         0.0363 
     41 CB         23.9731    3.2631   -4.4901 C.3       6 UNK        -0.1936 
     42 C          25.3157    3.7243   -6.5849 C.2       6 UNK         0.5081 
     43 O          25.3627    4.8883   -6.9837 O.2       6 UNK        -0.5248 
     44 N          25.2376    2.6637   -7.4011 N.am      7 UNK        -0.4718 
     45 CA         25.2967    2.7470   -8.8648 C.3       7 UNK         0.0273 
     46 CB         24.5392    1.5538   -9.4718 C.3       7 UNK        -0.1935 
     47 C          26.7384    2.7925   -9.4047 C.2       7 UNK         0.5018 
     48 O          26.9108    3.0263  -10.6015 O.2       7 UNK        -0.5186 
     49 N          27.7307    2.5601   -8.5299 N.am      8 UNK        -0.4240 
     50 CA         29.1699    2.4741   -8.7950 C.3       8 UNK         0.0235 
     51 CB         29.7387    3.8573   -9.1749 C.3       8 UNK        -0.2000 
     52 C          29.4969    1.3829   -9.8285 C.2       8 UNK         0.4941 
     53 O          30.0035    1.6828  -10.9134 O.2       8 UNK        -0.5273 
     54 N          29.1850    0.1269   -9.4808 N.am      9 UNK        -0.4262 
     55 CA         29.4086   -1.0656  -10.3037 C.3       9 UNK         0.0264 
     56 CB         28.5267   -2.2093   -9.7669 C.3       9 UNK        -0.1955 
     57 C          30.9020   -1.4472  -10.3667 C.2       9 UNK         0.5031 
     58 O          31.2877   -2.5077   -9.8732 O.2       9 UNK        -0.5390 
     59 N          31.7071   -0.5547  -10.9593 N.am      10 UNK        -0.4204 
     60 CA         33.1717   -0.5488  -10.9991 C.3       10 UNK         0.0237 
     61 CB         33.7272   -1.7791  -11.7556 C.3       10 UNK        -0.1985 
     62 C          33.7459   -0.3357   -9.5847 C.2       10 UNK         0.4970 
     63 O          33.3264    0.6090   -8.9131 O.2       10 UNK        -0.4914 
     64 N          34.6910   -1.1888   -9.1700 N.am      11 UNK        -0.4285 
     65 CA         35.3599   -1.1835   -7.8545 C.3       11 UNK         0.1007 
     66 C          36.3595   -0.0069   -7.6349 C.2       11 UNK         0.5703 
     67 N          36.7560    0.7275   -8.6680 N.am      11 UNK        -0.7361 
     68 O          36.8139    0.2263   -6.5170 O.2       11 UNK        -0.4986 
     69 C69        34.3839   -1.3648   -6.6531 C.3       12 UNK        -0.0947 
     70 S70        33.2501   -2.7804   -6.8604 S.3       12 UNK        -0.2240 
     71 C71        31.6409   -2.0093   -6.4968 C.3       12 UNK         0.0194 
     72 H72        25.4333   -7.7377   -3.0222 H         1 UNK         0.0906 
     73 H73        27.1560   -7.3838   -3.1660 H         1 UNK         0.0906 
     74 H74        26.5631   -8.3367   -1.8042 H         1 UNK         0.0906 
     75 H75        27.6157   -5.2668   -2.6075 H         1 UNK         0.3140 
     76 H76        26.6205   -4.0496   -0.1705 H         1 UNK         0.1085 
     77 H77        28.0090   -2.0870   -0.8891 H         1 UNK         0.0836 
     78 H78        28.3128   -2.8457   -2.4236 H         1 UNK         0.0836 
     79 H79        30.1466   -4.9040   -2.6962 H         1 UNK         0.0731 
     80 H80        31.5600   -4.6157   -1.7097 H         1 UNK         0.0731 
     81 H81        31.0150   -3.9539   -4.7288 H         1 UNK         0.1312 
     82 H82        31.8106    0.2536   -4.9484 H         1 UNK         0.1406 
     83 H83        30.9992   -1.5771   -1.1605 H         1 UNK         0.1631 
     84 H84        32.5050    1.2464   -2.4637 H         1 UNK         0.0717 
     85 H85        31.4392    0.7058   -1.1955 H         1 UNK         0.0717 
     86 H86        28.8455    0.1095   -2.5170 H         1 UNK         0.0934 
     87 H87        27.9256    1.5697   -2.3540 H         1 UNK         0.0934 
     88 H88        29.2175    0.9235   -5.0303 H         1 UNK         0.0739 
     89 H89        26.8472   -0.5129   -4.0494 H         1 UNK         0.3093 
     90 H90        26.4259   -2.1301   -7.1960 H         1 UNK         0.0818 
     91 H91        28.2080   -3.5016   -6.1072 H         1 UNK         0.0819 
     92 H92        26.6152   -4.1940   -5.8393 H         1 UNK         0.0819 
     93 H93        27.4217   -3.3086   -4.5481 H         1 UNK         0.0819 
     94 H94        25.0669   -2.4369   -4.6973 H         1 UNK         0.3041 
     95 H95        22.8000    0.2987   -5.1008 H         1 UNK         0.0784 
     96 H96        21.9055   -1.3860   -6.7165 H         1 UNK         0.0793 
     97 H97        22.2774   -2.6784   -5.5833 H         1 UNK         0.0793 
     98 H98        21.0701   -1.4580   -5.1749 H         1 UNK         0.0793 
     99 H99        22.6220   -1.7649   -3.2598 H         1 UNK         0.3024 
    100 H100       24.2274   -0.2629   -0.6503 H         1 UNK         0.1171 
    101 H101       22.7251   -2.0479    0.1116 H         1 UNK         0.0786 
    102 H102       21.9115   -1.1347   -1.1415 H         1 UNK         0.0786 
    103 H103       22.5936   -2.7220   -1.5042 H         1 UNK         0.0786 
    104 H104       25.7086   -1.8612   -0.1833 H         1 UNK         0.2977 
    105 H105       25.7787    1.5505   -4.1921 H         1 UNK         0.3127 
    106 H106       25.8235    4.3284   -4.6006 H         1 UNK         0.0770 
    107 H107       23.4518    2.4315   -4.9601 H         1 UNK         0.0814 
    108 H108       23.3677    4.1560   -4.6513 H         1 UNK         0.0814 
    109 H109       24.0034    3.0802   -3.4158 H         1 UNK         0.0814 
    110 H110       25.1521    1.7278   -7.0076 H         1 UNK         0.2983 
    111 H111       24.7978    3.6627   -9.1901 H         1 UNK         0.0947 
    112 H112       24.4648    1.6498  -10.5557 H         1 UNK         0.0806 
    113 H113       23.5236    1.4850   -9.0815 H         1 UNK         0.0806 
    114 H114       25.0437    0.6092   -9.2650 H         1 UNK         0.0806 
    115 H115       27.4670    2.4181   -7.5635 H         1 UNK         0.3000 
    116 H116       29.6410    2.1695   -7.8587 H         1 UNK         0.0850 
    117 H117       30.8209    3.8099   -9.3021 H         1 UNK         0.0810 
    118 H118       29.5346    4.5939   -8.3977 H         1 UNK         0.0810 
    119 H119       29.3176    4.2293  -10.1094 H         1 UNK         0.0810 
    120 H120       28.8092   -0.0416   -8.5470 H         1 UNK         0.3040 
    121 H121       29.0840   -0.8473  -11.3233 H         1 UNK         0.0766 
    122 H122       27.4722   -1.9328   -9.7701 H         1 UNK         0.0812 
    123 H123       28.7979   -2.4815   -8.7460 H         1 UNK         0.0812 
    124 H124       28.6303   -3.1041  -10.3818 H         1 UNK         0.0812 
    125 H125       31.2613    0.3197  -11.2326 H         1 UNK         0.3205 
    126 H126       33.4515    0.3374  -11.5704 H         1 UNK         0.0754 
    127 H127       34.8035   -1.6947  -11.9111 H         1 UNK         0.0769 
    128 H128       33.2725   -1.8660  -12.7426 H         1 UNK         0.0769 
    129 H129       33.5394   -2.7138  -11.2261 H         1 UNK         0.0769 
    130 H130       34.9701   -1.9304   -9.7949 H         1 UNK         0.2981 
    131 H131       35.9965   -2.0686   -7.8702 H         1 UNK         0.0541 
    132 H132       36.4046    0.5418   -9.5931 H         1 UNK         0.3459 
    133 H133       37.4117    1.4778   -8.5167 H         1 UNK         0.3459 
    134 H134       34.9422   -1.5315   -5.7305 H         1 UNK         0.0612 
    135 H135       33.8092   -0.4519   -6.4926 H         1 UNK         0.0612 
    136 H136       31.5609   -1.0460   -7.0035 H         1 UNK         0.0624 
    137 H137       30.8486   -2.6343   -6.9116 H         1 UNK         0.0624 
@<TRIPOS>BOND
     1    1    2 1    
     2    1   72 1    
     3    1   73 1    
     4    1   74 1    
     5    2    3 2    
     6    2    4 am   BACKBONE|DICT|INTERRES
     7    4    5 1    
     8    4   75 1    
     9    5    6 1    
    10    5   35 1    
    11    5   76 1    
    12    6    7 1    
    13    6   77 1    
    14    6   78 1    
    15    7    8 1    
    16    8    9 1    
    17    8   79 1    
    18    8   80 1    
    19    9   10 ar   
    20    9   14 ar   
    21   10   11 ar   
    22   10   81 1    
    23   11   12 ar   
    24   11   71 1    
    25   12   13 ar   
    26   12   82 1    
    27   13   14 ar   
    28   13   15 1    
    29   14   83 1    
    30   15   16 1    
    31   15   84 1    
    32   15   85 1    
    33   16   17 1    
    34   17   18 1    
    35   17   86 1    
    36   17   87 1    
    37   18   19 1    
    38   18   37 1    
    39   18   88 1    
    40   19   20 am   BACKBONE|DICT|INTERRES
    41   19   89 1    
    42   20   21 2    
    43   20   22 1    
    44   22   23 1    
    45   22   24 1    
    46   22   90 1    
    47   23   91 1    
    48   23   92 1    
    49   23   93 1    
    50   24   25 am   BACKBONE|DICT|INTERRES
    51   24   94 1    
    52   25   26 2    
    53   25   27 1    
    54   27   28 1    
    55   27   29 1    
    56   27   95 1    
    57   28   96 1    
    58   28   97 1    
    59   28   98 1    
    60   29   30 am   BACKBONE|DICT|INTERRES
    61   29   99 1    
    62   30   31 2    
    63   30   32 1    
    64   32   33 1    
    65   32   34 1    
    66   32  100 1    
    67   33  101 1    
    68   33  102 1    
    69   33  103 1    
    70   34   35 am   BACKBONE|DICT|INTERRES
    71   34  104 1    
    72   35   36 2    
    73   37   38 2    
    74   37   39 am   BACKBONE|DICT|INTERRES
    75   39   40 1    
    76   39  105 1    
    77   40   41 1    
    78   40   42 1    
    79   40  106 1    
    80   41  107 1    
    81   41  108 1    
    82   41  109 1    
    83   42   43 2    
    84   42   44 am   BACKBONE|DICT|INTERRES
    85   44   45 1    
    86   44  110 1    
    87   45   46 1    
    88   45   47 1    
    89   45  111 1    
    90   46  112 1    
    91   46  113 1    
    92   46  114 1    
    93   47   48 2    
    94   47   49 am   BACKBONE|DICT|INTERRES
    95   49   50 1    
    96   49  115 1    
    97   50   51 1    
    98   50   52 1    
    99   50  116 1    
   100   51  117 1    
   101   51  118 1    
   102   51  119 1    
   103   52   53 2    
   104   52   54 am   BACKBONE|DICT|INTERRES
   105   54   55 1    
   106   54  120 1    
   107   55   56 1    
   108   55   57 1    
   109   55  121 1    
   110   56  122 1    
   111   56  123 1    
   112   56  124 1    
   113   57   58 2    
   114   57   59 am   BACKBONE|DICT|INTERRES
   115   59   60 1    
   116   59  125 1    
   117   60   61 1    
   118   60   62 1    
   119   60  126 1    
   120   61  127 1    
   121   61  128 1    
   122   61  129 1    
   123   62   63 2    
   124   62   64 am   BACKBONE|DICT|INTERRES
   125   64   65 1    
   126   64  130 1    
   127   65   66 1    
   128   65   69 1    
   129   65  131 1    
   130   66   67 am   BACKBONE|DICT|INTERRES
   131   66   68 2    
   132   67  132 1    
   133   67  133 1    
   134   69   70 1    
   135   69  134 1    
   136   69  135 1    
   137   70   71 1    
   138   71  136 1    
   139   71  137 1    
@<TRIPOS>SUBSTRUCTURE
     1 UNK         1 GROUP             0       ****    0 ROOT    
