@<TRIPOS>MOLECULE
3R137
137   139    1
SMALL
USER_CHARGES


@<TRIPOS>ATOM
      1 CA         29.8669   -0.5849    0.8425 C.3       0 UNK        -0.2020 
      2 C          29.0046   -1.1168   -0.2915 C.2       0 UNK         0.4855 
      3 O          27.8005   -0.8616   -0.3120 O.2       0 UNK        -0.5197 
      4 N          29.6170   -1.8334   -1.2464 N.am      1 UNK        -0.4892 
      5 CA         28.9757   -2.5006   -2.3947 C.3       1 UNK         0.0835 
      6 C6         28.1906   -3.7781   -1.9852 C.3       12 UNK        -0.0855 
      7 S7         29.3125   -5.0442   -1.2910 S.3       12 UNK        -0.2931 
      8 C8         29.4332   -6.2669   -2.6438 C.3       12 UNK         0.0378 
      9 C9         29.7336   -5.6308   -3.9963 C.ar      12 UNK        -0.0802 
     10 C10        30.9204   -4.9221   -4.2028 C.ar      12 UNK        -0.0944 
     11 C11        31.1601   -4.2762   -5.4198 C.ar      12 UNK        -0.0787 
     12 C12        30.2201   -4.3749   -6.4511 C.ar      12 UNK        -0.0862 
     13 C13        29.0494   -5.1197   -6.2706 C.ar      12 UNK        -0.0733 
     14 C14        28.8113   -5.7398   -5.0405 C.ar      12 UNK        -0.0832 
     15 C15        28.0482   -5.2845   -7.4059 C.3       12 UNK         0.0240 
     16 S16        26.4323   -4.5459   -7.0112 S.3       12 UNK        -0.2522 
     17 C17        26.8136   -2.7787   -7.2143 C.3       12 UNK        -0.0967 
     18 CA         25.5587   -1.8916   -7.0182 C.3       5 UNK         0.0660 
     19 N          25.0615   -1.9639   -5.6468 N.am      5 UNK        -0.4015 
     20 C          23.7844   -1.8410   -5.2698 C.2       4 UNK         0.4946 
     21 O          22.8627   -1.5937   -6.0492 O.2       4 UNK        -0.5353 
     22 CA         23.4993   -1.9902   -3.7704 C.3       4 UNK         0.0277 
     23 CB         23.8014   -3.4206   -3.2886 C.3       4 UNK        -0.1981 
     24 N          24.3112   -1.0385   -3.0149 N.am      4 UNK        -0.4209 
     25 C          23.8669    0.1254   -2.5209 C.2       3 UNK         0.4942 
     26 O          22.6910    0.4890   -2.5673 O.2       3 UNK        -0.5208 
     27 CA         24.9082    1.0511   -1.8640 C.3       3 UNK         0.0250 
     28 CB         24.9250    0.8463   -0.3409 C.3       3 UNK        -0.1990 
     29 N          26.2590    0.8603   -2.4004 N.am      3 UNK        -0.4232 
     30 C          26.6275    1.2203   -3.6406 C.2       2 UNK         0.4993 
     31 O          25.8944    1.8390   -4.4109 O.2       2 UNK        -0.5286 
     32 CA         28.0370    0.8250   -4.1207 C.3       2 UNK         0.0209 
     33 CB         28.9794    2.0354   -4.0270 C.3       2 UNK        -0.1931 
     34 N          28.6479   -0.2937   -3.3978 N.am      2 UNK        -0.4546 
     35 C          28.1488   -1.5314   -3.2668 C.2       1 UNK         0.5154 
     36 O          27.0749   -1.8875   -3.7556 O.2       1 UNK        -0.5181 
     37 C          25.8245   -0.4252   -7.3977 C.2       5 UNK         0.5014 
     38 O          26.9673   -0.0602   -7.6706 O.2       5 UNK        -0.5248 
     39 N          24.7662    0.3956   -7.4315 N.am      6 UNK        -0.4434 
     40 CA         24.8292    1.8183   -7.7930 C.3       6 UNK         0.0363 
     41 CB         23.4497    2.4594   -7.5779 C.3       6 UNK        -0.1936 
     42 C          25.3306    2.0727   -9.2284 C.2       6 UNK         0.5081 
     43 O          25.9406    3.1101   -9.4858 O.2       6 UNK        -0.5248 
     44 N          25.0957    1.1068  -10.1273 N.am      7 UNK        -0.4718 
     45 CA         25.5813    1.1029  -11.5095 C.3       7 UNK         0.0273 
     46 CB         24.7407    0.1049  -12.3236 C.3       7 UNK        -0.1935 
     47 C          27.0826    0.7761  -11.6453 C.2       7 UNK         0.5018 
     48 O          27.6350    0.9819  -12.7268 O.2       7 UNK        -0.5186 
     49 N          27.7153    0.2714  -10.5773 N.am      8 UNK        -0.4240 
     50 CA         29.1326   -0.0913  -10.5263 C.3       8 UNK         0.0235 
     51 CB         29.2842   -1.6149  -10.7031 C.3       8 UNK        -0.2000 
     52 C          29.7515    0.4319   -9.2207 C.2       8 UNK         0.4941 
     53 O          30.4870   -0.2941   -8.5488 O.2       8 UNK        -0.5273 
     54 N          29.4124    1.6822   -8.8762 N.am      9 UNK        -0.4262 
     55 CA         29.8696    2.3830   -7.6770 C.3       9 UNK         0.0264 
     56 CB         29.0462    3.6725   -7.5168 C.3       9 UNK        -0.1955 
     57 C          31.3780    2.6915   -7.7039 C.2       9 UNK         0.5031 
     58 O          31.9858    2.7053   -8.7777 O.2       9 UNK        -0.5390 
     59 N          31.9323    2.9637   -6.5126 N.am      10 UNK        -0.4204 
     60 CA         33.3529    3.1964   -6.2227 C.3       10 UNK         0.0237 
     61 CB         33.8770    4.4654   -6.9313 C.3       10 UNK        -0.1985 
     62 C          34.1973    1.9411   -6.5107 C.2       10 UNK         0.4970 
     63 O          35.0430    1.9513   -7.4075 O.2       10 UNK        -0.4914 
     64 N          33.9221    0.8783   -5.7415 N.am      11 UNK        -0.4285 
     65 CA         34.6226   -0.4158   -5.7630 C.3       11 UNK         0.1007 
     66 C          36.1624   -0.2848   -5.5839 C.2       11 UNK         0.5703 
     67 N          36.9434   -1.0685   -6.3151 N.am      11 UNK        -0.7361 
     68 O          36.6473    0.4846   -4.7555 O.2       11 UNK        -0.4986 
     69 C69        34.0543   -1.3744   -4.6833 C.3       12 UNK        -0.0947 
     70 S70        32.2959   -1.8027   -4.9256 S.3       12 UNK        -0.2240 
     71 C71        32.4435   -3.4841   -5.6110 C.3       12 UNK         0.0194 
     72 H72        29.5085   -0.9709    1.7963 H         1 UNK         0.0906 
     73 H73        30.9122   -0.8725    0.7315 H         1 UNK         0.0906 
     74 H74        29.8150    0.5031    0.8743 H         1 UNK         0.0906 
     75 H75        30.6111   -1.9984   -1.1651 H         1 UNK         0.3140 
     76 H76        29.7897   -2.8067   -3.0500 H         1 UNK         0.1085 
     77 H77        27.6545   -4.2080   -2.8329 H         1 UNK         0.0836 
     78 H78        27.4277   -3.5364   -1.2433 H         1 UNK         0.0836 
     79 H79        30.2187   -6.9846   -2.4036 H         1 UNK         0.0731 
     80 H80        28.5020   -6.8345   -2.6818 H         1 UNK         0.0731 
     81 H81        31.6411   -4.8413   -3.4001 H         1 UNK         0.1312 
     82 H82        30.4067   -3.8812   -7.3954 H         1 UNK         0.1406 
     83 H83        27.8966   -6.2997   -4.8978 H         1 UNK         0.1631 
     84 H84        27.9075   -6.3491   -7.5978 H         1 UNK         0.0717 
     85 H85        28.4291   -4.8553   -8.3340 H         1 UNK         0.0717 
     86 H86        27.2233   -2.6432   -8.2162 H         1 UNK         0.0934 
     87 H87        27.6048   -2.4979   -6.5155 H         1 UNK         0.0934 
     88 H88        24.7860   -2.2573   -7.6983 H         1 UNK         0.0739 
     89 H89        25.7775   -2.0924   -4.9329 H         1 UNK         0.3093 
     90 H90        22.4363   -1.7984   -3.6091 H         1 UNK         0.0818 
     91 H91        24.8562   -3.6780   -3.3949 H         1 UNK         0.0819 
     92 H92        23.5343   -3.5458   -2.2393 H         1 UNK         0.0819 
     93 H93        23.2278   -4.1530   -3.8582 H         1 UNK         0.0819 
     94 H94        25.3057   -1.2325   -2.9703 H         1 UNK         0.3041 
     95 H95        24.6067    2.0815   -2.0649 H         1 UNK         0.0784 
     96 H96        23.9447    1.0532    0.0905 H         1 UNK         0.0793 
     97 H97        25.1877   -0.1782   -0.0745 H         1 UNK         0.0793 
     98 H98        25.6399    1.5122    0.1427 H         1 UNK         0.0793 
     99 H99        26.9130    0.3488   -1.8161 H         1 UNK         0.3024 
    100 H100       27.9479    0.5280   -5.1681 H         1 UNK         0.1171 
    101 H101       29.9725    1.7951   -4.4042 H         1 UNK         0.0786 
    102 H102       29.0881    2.3805   -2.9978 H         1 UNK         0.0786 
    103 H103       28.5966    2.8733   -4.6110 H         1 UNK         0.0786 
    104 H104       29.5215   -0.0998   -2.9298 H         1 UNK         0.2977 
    105 H105       23.8636    0.0202   -7.1626 H         1 UNK         0.3127 
    106 H106       25.5386    2.2976   -7.1149 H         1 UNK         0.0770 
    107 H107       22.6867    1.9988   -8.2065 H         1 UNK         0.0814 
    108 H108       23.4728    3.5234   -7.8177 H         1 UNK         0.0814 
    109 H109       23.1310    2.3703   -6.5389 H         1 UNK         0.0814 
    110 H110       24.5773    0.2945   -9.8256 H         1 UNK         0.2983 
    111 H111       25.4308    2.1001  -11.9295 H         1 UNK         0.0947 
    112 H112       25.0437    0.1017  -13.3717 H         1 UNK         0.0806 
    113 H113       23.6817    0.3624  -12.2972 H         1 UNK         0.0806 
    114 H114       24.8497   -0.9143  -11.9507 H         1 UNK         0.0806 
    115 H115       27.2163    0.1857   -9.6966 H         1 UNK         0.3000 
    116 H116       29.6756    0.4010  -11.3359 H         1 UNK         0.0850 
    117 H117       30.3359   -1.9034  -10.7195 H         1 UNK         0.0810 
    118 H118       28.8418   -1.9515  -11.6407 H         1 UNK         0.0810 
    119 H119       28.8085   -2.1630   -9.8904 H         1 UNK         0.0810 
    120 H120       28.8061    2.1997   -9.4954 H         1 UNK         0.3040 
    121 H121       29.6706    1.7275   -6.8277 H         1 UNK         0.0766 
    122 H122       29.1736    4.3393   -8.3706 H         1 UNK         0.0812 
    123 H123       27.9827    3.4515   -7.4203 H         1 UNK         0.0812 
    124 H124       29.3408    4.2276   -6.6257 H         1 UNK         0.0812 
    125 H125       31.3287    2.9575   -5.7034 H         1 UNK         0.3205 
    126 H126       33.4245    3.3791   -5.1491 H         1 UNK         0.0754 
    127 H127       34.9023    4.6815   -6.6283 H         1 UNK         0.0769 
    128 H128       33.2738    5.3375   -6.6791 H         1 UNK         0.0769 
    129 H129       33.8781    4.3621   -8.0166 H         1 UNK         0.0769 
    130 H130       33.2015    0.9618   -5.0414 H         1 UNK         0.2981 
    131 H131       34.4352   -0.8557   -6.7444 H         1 UNK         0.0541 
    132 H132       37.9429   -1.0082   -6.1993 H         1 UNK         0.3459 
    133 H133       36.5557   -1.7115   -6.9879 H         1 UNK         0.3459 
    134 H134       34.1519   -0.9245   -3.6934 H         1 UNK         0.0612 
    135 H135       34.6403   -2.2942   -4.6435 H         1 UNK         0.0612 
    136 H136       33.2601   -4.0188   -5.1241 H         1 UNK         0.0624 
    137 H137       32.7042   -3.4180   -6.6683 H         1 UNK         0.0624 
@<TRIPOS>BOND
     1    1    2 1    
     2    1   72 1    
     3    1   73 1    
     4    1   74 1    
     5    2    3 2    
     6    2    4 am   BACKBONE|DICT|INTERRES
     7    4    5 1    
     8    4   75 1    
     9    5    6 1    
    10    5   35 1    
    11    5   76 1    
    12    6    7 1    
    13    6   77 1    
    14    6   78 1    
    15    7    8 1    
    16    8    9 1    
    17    8   79 1    
    18    8   80 1    
    19    9   10 ar   
    20    9   14 ar   
    21   10   11 ar   
    22   10   81 1    
    23   11   12 ar   
    24   11   71 1    
    25   12   13 ar   
    26   12   82 1    
    27   13   14 ar   
    28   13   15 1    
    29   14   83 1    
    30   15   16 1    
    31   15   84 1    
    32   15   85 1    
    33   16   17 1    
    34   17   18 1    
    35   17   86 1    
    36   17   87 1    
    37   18   19 1    
    38   18   37 1    
    39   18   88 1    
    40   19   20 am   BACKBONE|DICT|INTERRES
    41   19   89 1    
    42   20   21 2    
    43   20   22 1    
    44   22   23 1    
    45   22   24 1    
    46   22   90 1    
    47   23   91 1    
    48   23   92 1    
    49   23   93 1    
    50   24   25 am   BACKBONE|DICT|INTERRES
    51   24   94 1    
    52   25   26 2    
    53   25   27 1    
    54   27   28 1    
    55   27   29 1    
    56   27   95 1    
    57   28   96 1    
    58   28   97 1    
    59   28   98 1    
    60   29   30 am   BACKBONE|DICT|INTERRES
    61   29   99 1    
    62   30   31 2    
    63   30   32 1    
    64   32   33 1    
    65   32   34 1    
    66   32  100 1    
    67   33  101 1    
    68   33  102 1    
    69   33  103 1    
    70   34   35 am   BACKBONE|DICT|INTERRES
    71   34  104 1    
    72   35   36 2    
    73   37   38 2    
    74   37   39 am   BACKBONE|DICT|INTERRES
    75   39   40 1    
    76   39  105 1    
    77   40   41 1    
    78   40   42 1    
    79   40  106 1    
    80   41  107 1    
    81   41  108 1    
    82   41  109 1    
    83   42   43 2    
    84   42   44 am   BACKBONE|DICT|INTERRES
    85   44   45 1    
    86   44  110 1    
    87   45   46 1    
    88   45   47 1    
    89   45  111 1    
    90   46  112 1    
    91   46  113 1    
    92   46  114 1    
    93   47   48 2    
    94   47   49 am   BACKBONE|DICT|INTERRES
    95   49   50 1    
    96   49  115 1    
    97   50   51 1    
    98   50   52 1    
    99   50  116 1    
   100   51  117 1    
   101   51  118 1    
   102   51  119 1    
   103   52   53 2    
   104   52   54 am   BACKBONE|DICT|INTERRES
   105   54   55 1    
   106   54  120 1    
   107   55   56 1    
   108   55   57 1    
   109   55  121 1    
   110   56  122 1    
   111   56  123 1    
   112   56  124 1    
   113   57   58 2    
   114   57   59 am   BACKBONE|DICT|INTERRES
   115   59   60 1    
   116   59  125 1    
   117   60   61 1    
   118   60   62 1    
   119   60  126 1    
   120   61  127 1    
   121   61  128 1    
   122   61  129 1    
   123   62   63 2    
   124   62   64 am   BACKBONE|DICT|INTERRES
   125   64   65 1    
   126   64  130 1    
   127   65   66 1    
   128   65   69 1    
   129   65  131 1    
   130   66   67 am   BACKBONE|DICT|INTERRES
   131   66   68 2    
   132   67  132 1    
   133   67  133 1    
   134   69   70 1    
   135   69  134 1    
   136   69  135 1    
   137   70   71 1    
   138   71  136 1    
   139   71  137 1    
@<TRIPOS>SUBSTRUCTURE
     1 UNK         1 GROUP             0       ****    0 ROOT    
