@<TRIPOS>MOLECULE
3R137
137   139    1
SMALL
USER_CHARGES


@<TRIPOS>ATOM
      1 CA         23.0487   -5.2880   -2.7059 C.3       0 UNK        -0.2020 
      2 C          23.9069   -4.4363   -1.7837 C.2       0 UNK         0.4855 
      3 O          23.3845   -3.5542   -1.1011 O.2       0 UNK        -0.5197 
      4 N          25.2235   -4.6812   -1.7683 N.am      1 UNK        -0.4892 
      5 CA         26.2290   -3.9210   -1.0177 C.3       1 UNK         0.0835 
      6 C6         27.6392   -4.5680   -1.1046 C.3       12 UNK        -0.0855 
      7 S7         28.1435   -5.1111   -2.7814 S.3       12 UNK        -0.2931 
      8 C8         29.9593   -5.0227   -2.6788 C.3       12 UNK         0.0378 
      9 C9         30.5160   -3.7938   -3.3859 C.ar      12 UNK        -0.0802 
     10 C10        31.1330   -3.9215   -4.6353 C.ar      12 UNK        -0.0944 
     11 C11        31.6957   -2.8114   -5.2748 C.ar      12 UNK        -0.0787 
     12 C12        31.6111   -1.5576   -4.6571 C.ar      12 UNK        -0.0862 
     13 C13        31.0035   -1.4157   -3.4059 C.ar      12 UNK        -0.0733 
     14 C14        30.4540   -2.5372   -2.7769 C.ar      12 UNK        -0.0832 
     15 C15        30.9854   -0.0603   -2.7110 C.3       12 UNK         0.0240 
     16 S16        30.0553    1.1996   -3.6384 S.3       12 UNK        -0.2522 
     17 C17        28.3586    0.5319   -3.5928 C.3       12 UNK        -0.0967 
     18 CA         27.7959    0.2559   -5.0091 C.3       5 UNK         0.0660 
     19 N          26.7448   -0.7721   -4.9884 N.am      5 UNK        -0.4015 
     20 C          25.9994   -1.1982   -6.0220 C.2       4 UNK         0.4946 
     21 O          26.0845   -0.7531   -7.1663 O.2       4 UNK        -0.5353 
     22 CA         24.9345   -2.2593   -5.7155 C.3       4 UNK         0.0277 
     23 CB         25.5653   -3.6489   -5.5299 C.3       4 UNK        -0.1981 
     24 N          24.1698   -1.8818   -4.5275 N.am      4 UNK        -0.4209 
     25 C          23.1632   -0.9948   -4.5376 C.2       3 UNK         0.4942 
     26 O          22.6823   -0.5173   -5.5652 O.2       3 UNK        -0.5208 
     27 CA         22.6086   -0.5386   -3.1769 C.3       3 UNK         0.0250 
     28 CB         21.3542   -1.3439   -2.8022 C.3       3 UNK        -0.1990 
     29 N          23.5962   -0.6254   -2.0972 N.am      3 UNK        -0.4232 
     30 C          24.6575    0.1892   -1.9853 C.2       2 UNK         0.4993 
     31 O          24.8981    1.1095   -2.7682 O.2       2 UNK        -0.5286 
     32 CA         25.6480   -0.1048   -0.8417 C.3       2 UNK         0.0209 
     33 CB         25.2192    0.6251    0.4409 C.3       2 UNK        -0.1931 
     34 N          25.8201   -1.5352   -0.5579 N.am      2 UNK        -0.4546 
     35 C          26.2301   -2.4432   -1.4548 C.2       1 UNK         0.5154 
     36 O          26.5314   -2.1552   -2.6125 O.2       1 UNK        -0.5181 
     37 C          27.3640    1.5692   -5.6923 C.2       5 UNK         0.5014 
     38 O          28.1714    2.1677   -6.4012 O.2       5 UNK        -0.5248 
     39 N          26.0866    1.9500   -5.5353 N.am      6 UNK        -0.4434 
     40 CA         25.4304    3.0692   -6.2222 C.3       6 UNK         0.0363 
     41 CB         23.9375    3.0677   -5.8571 C.3       6 UNK        -0.1936 
     42 C          25.6083    3.0912   -7.7572 C.2       6 UNK         0.5081 
     43 O          25.5974    4.1765   -8.3395 O.2       6 UNK        -0.5248 
     44 N          25.7969    1.9166   -8.3751 N.am      7 UNK        -0.4718 
     45 CA         26.2150    1.7625   -9.7694 C.3       7 UNK         0.0273 
     46 CB         25.1853    0.8931  -10.5092 C.3       7 UNK        -0.1935 
     47 C          27.6165    1.1342   -9.8750 C.2       7 UNK         0.5018 
     48 O          28.3870    1.5261  -10.7520 O.2       7 UNK        -0.5186 
     49 N          27.9195    0.1571   -9.0082 N.am      8 UNK        -0.4240 
     50 CA         29.1057   -0.6977   -9.0849 C.3       8 UNK         0.0235 
     51 CB         28.8432   -2.0020   -8.3117 C.3       8 UNK        -0.2000 
     52 C          30.4254   -0.0519   -8.6288 C.2       8 UNK         0.4941 
     53 O          31.4665   -0.6579   -8.8769 O.2       8 UNK        -0.5273 
     54 N          30.4002    1.1437   -8.0125 N.am      9 UNK        -0.4262 
     55 CA         31.5700    1.8833   -7.4939 C.3       9 UNK         0.0264 
     56 CB         31.1235    3.2511   -6.9505 C.3       9 UNK        -0.1955 
     57 C          32.7535    2.0729   -8.4664 C.2       9 UNK         0.5031 
     58 O          33.8766    2.2988   -8.0105 O.2       9 UNK        -0.5390 
     59 N          32.5045    1.9224   -9.7750 N.am      10 UNK        -0.4204 
     60 CA         33.5057    1.8035  -10.8385 C.3       10 UNK         0.0237 
     61 CB         32.7807    1.6623  -12.1871 C.3       10 UNK        -0.1985 
     62 C          34.5184    0.6517  -10.6470 C.2       10 UNK         0.4970 
     63 O          35.5737    0.6908  -11.2814 O.2       10 UNK        -0.4914 
     64 N          34.2140   -0.3277   -9.7789 N.am      11 UNK        -0.4285 
     65 CA         35.1595   -1.3528   -9.3079 C.3       11 UNK         0.1007 
     66 C          36.4150   -0.8023   -8.5615 C.2       11 UNK         0.5703 
     67 N          36.3958    0.4196   -8.0370 N.am      11 UNK        -0.7361 
     68 O          37.4252   -1.4960   -8.4686 O.2       11 UNK        -0.4986 
     69 C69        34.4473   -2.4757   -8.5000 C.3       12 UNK        -0.0947 
     70 S70        33.8813   -1.9755   -6.8332 S.3       12 UNK        -0.2240 
     71 C71        32.3776   -2.9892   -6.6311 C.3       12 UNK         0.0194 
     72 H72        22.2414   -5.7546   -2.1422 H         1 UNK         0.0906 
     73 H73        22.6069   -4.6679   -3.4856 H         1 UNK         0.0906 
     74 H74        23.6267   -6.0771   -3.1866 H         1 UNK         0.0906 
     75 H75        25.6089   -5.3912   -2.3760 H         1 UNK         0.3140 
     76 H76        25.9270   -3.9518    0.0315 H         1 UNK         0.1085 
     77 H77        27.6610   -5.4525   -0.4661 H         1 UNK         0.0836 
     78 H78        28.3922   -3.8961   -0.6890 H         1 UNK         0.0836 
     79 H79        30.3702   -5.9294   -3.1254 H         1 UNK         0.0731 
     80 H80        30.2848   -5.0334   -1.6376 H         1 UNK         0.0731 
     81 H81        31.1871   -4.8936   -5.1063 H         1 UNK         0.1312 
     82 H82        32.0321   -0.6875   -5.1410 H         1 UNK         0.1406 
     83 H83        29.9880   -2.4369   -1.8067 H         1 UNK         0.1631 
     84 H84        32.0128    0.2852   -2.5887 H         1 UNK         0.0717 
     85 H85        30.5689   -0.1394   -1.7056 H         1 UNK         0.0717 
     86 H86        28.3730   -0.3875   -3.0082 H         1 UNK         0.0934 
     87 H87        27.7210    1.2236   -3.0394 H         1 UNK         0.0934 
     88 H88        28.5995   -0.1667   -5.6146 H         1 UNK         0.0739 
     89 H89        26.6190   -1.2462   -4.0938 H         1 UNK         0.3093 
     90 H90        24.2583   -2.3134   -6.5718 H         1 UNK         0.0818 
     91 H91        26.1055   -3.9508   -6.4281 H         1 UNK         0.0819 
     92 H92        26.2763   -3.6734   -4.7048 H         1 UNK         0.0819 
     93 H93        24.8056   -4.4067   -5.3390 H         1 UNK         0.0819 
     94 H94        24.5428   -2.1803   -3.6363 H         1 UNK         0.3041 
     95 H95        22.3169    0.5091   -3.2801 H         1 UNK         0.0784 
     96 H96        20.5805   -1.2331   -3.5633 H         1 UNK         0.0793 
     97 H97        21.5662   -2.4088   -2.7095 H         1 UNK         0.0793 
     98 H98        20.9299   -1.0025   -1.8580 H         1 UNK         0.0793 
     99 H99        23.4951   -1.3960   -1.4453 H         1 UNK         0.3024 
    100 H100       26.6201    0.2874   -1.1444 H         1 UNK         0.1171 
    101 H101       25.9617    0.5101    1.2308 H         1 UNK         0.0786 
    102 H102       25.1046    1.6951    0.2607 H         1 UNK         0.0786 
    103 H103       24.2654    0.2542    0.8183 H         1 UNK         0.0786 
    104 H104       25.5498   -1.8475    0.3641 H         1 UNK         0.2977 
    105 H105       25.5166    1.4273   -4.8803 H         1 UNK         0.3127 
    106 H106       25.8790    3.9856   -5.8342 H         1 UNK         0.0770 
    107 H107       23.4427    2.1569   -6.1973 H         1 UNK         0.0814 
    108 H108       23.4212    3.9116   -6.3167 H         1 UNK         0.0814 
    109 H109       23.7910    3.1459   -4.7794 H         1 UNK         0.0814 
    110 H110       25.7867    1.0711   -7.8119 H         1 UNK         0.2983 
    111 H111       26.2598    2.7338  -10.2668 H         1 UNK         0.0947 
    112 H112       25.4720    0.7485  -11.5518 H         1 UNK         0.0806 
    113 H113       24.2003    1.3600  -10.5057 H         1 UNK         0.0806 
    114 H114       25.0889   -0.0943  -10.0552 H         1 UNK         0.0806 
    115 H115       27.2190   -0.1239   -8.3229 H         1 UNK         0.3000 
    116 H116       29.2417   -0.9655  -10.1350 H         1 UNK         0.0850 
    117 H117       29.6211   -2.7373   -8.5172 H         1 UNK         0.0810 
    118 H118       27.8952   -2.4555   -8.6019 H         1 UNK         0.0810 
    119 H119       28.8239   -1.8420   -7.2340 H         1 UNK         0.0810 
    120 H120       29.4946    1.5470   -7.7894 H         1 UNK         0.3040 
    121 H121       31.9579    1.3006   -6.6564 H         1 UNK         0.0766 
    122 H122       30.5074    3.1410   -6.0592 H         1 UNK         0.0812 
    123 H123       30.5527    3.8131   -7.6904 H         1 UNK         0.0812 
    124 H124       31.9788    3.8637   -6.6612 H         1 UNK         0.0812 
    125 H125       31.5488    1.7284  -10.0379 H         1 UNK         0.3205 
    126 H126       34.0782    2.7330  -10.8496 H         1 UNK         0.0754 
    127 H127       32.1318    2.5167  -12.3816 H         1 UNK         0.0769 
    128 H128       32.1686    0.7599  -12.2218 H         1 UNK         0.0769 
    129 H129       33.4932    1.6054  -13.0114 H         1 UNK         0.0769 
    130 H130       33.2996   -0.3309   -9.3335 H         1 UNK         0.2981 
    131 H131       35.5482   -1.8256  -10.2116 H         1 UNK         0.0541 
    132 H132       35.5599    0.9900   -8.0883 H         1 UNK         0.3459 
    133 H133       37.2133    0.7655   -7.5611 H         1 UNK         0.3459 
    134 H134       33.5936   -2.8470   -9.0691 H         1 UNK         0.0612 
    135 H135       35.1165   -3.3295   -8.3812 H         1 UNK         0.0612 
    136 H136       31.6658   -2.7457   -7.4162 H         1 UNK         0.0624 
    137 H137       32.6544   -4.0343   -6.7778 H         1 UNK         0.0624 
@<TRIPOS>BOND
     1    1    2 1    
     2    1   72 1    
     3    1   73 1    
     4    1   74 1    
     5    2    3 2    
     6    2    4 am   BACKBONE|DICT|INTERRES
     7    4    5 1    
     8    4   75 1    
     9    5    6 1    
    10    5   35 1    
    11    5   76 1    
    12    6    7 1    
    13    6   77 1    
    14    6   78 1    
    15    7    8 1    
    16    8    9 1    
    17    8   79 1    
    18    8   80 1    
    19    9   10 ar   
    20    9   14 ar   
    21   10   11 ar   
    22   10   81 1    
    23   11   12 ar   
    24   11   71 1    
    25   12   13 ar   
    26   12   82 1    
    27   13   14 ar   
    28   13   15 1    
    29   14   83 1    
    30   15   16 1    
    31   15   84 1    
    32   15   85 1    
    33   16   17 1    
    34   17   18 1    
    35   17   86 1    
    36   17   87 1    
    37   18   19 1    
    38   18   37 1    
    39   18   88 1    
    40   19   20 am   BACKBONE|DICT|INTERRES
    41   19   89 1    
    42   20   21 2    
    43   20   22 1    
    44   22   23 1    
    45   22   24 1    
    46   22   90 1    
    47   23   91 1    
    48   23   92 1    
    49   23   93 1    
    50   24   25 am   BACKBONE|DICT|INTERRES
    51   24   94 1    
    52   25   26 2    
    53   25   27 1    
    54   27   28 1    
    55   27   29 1    
    56   27   95 1    
    57   28   96 1    
    58   28   97 1    
    59   28   98 1    
    60   29   30 am   BACKBONE|DICT|INTERRES
    61   29   99 1    
    62   30   31 2    
    63   30   32 1    
    64   32   33 1    
    65   32   34 1    
    66   32  100 1    
    67   33  101 1    
    68   33  102 1    
    69   33  103 1    
    70   34   35 am   BACKBONE|DICT|INTERRES
    71   34  104 1    
    72   35   36 2    
    73   37   38 2    
    74   37   39 am   BACKBONE|DICT|INTERRES
    75   39   40 1    
    76   39  105 1    
    77   40   41 1    
    78   40   42 1    
    79   40  106 1    
    80   41  107 1    
    81   41  108 1    
    82   41  109 1    
    83   42   43 2    
    84   42   44 am   BACKBONE|DICT|INTERRES
    85   44   45 1    
    86   44  110 1    
    87   45   46 1    
    88   45   47 1    
    89   45  111 1    
    90   46  112 1    
    91   46  113 1    
    92   46  114 1    
    93   47   48 2    
    94   47   49 am   BACKBONE|DICT|INTERRES
    95   49   50 1    
    96   49  115 1    
    97   50   51 1    
    98   50   52 1    
    99   50  116 1    
   100   51  117 1    
   101   51  118 1    
   102   51  119 1    
   103   52   53 2    
   104   52   54 am   BACKBONE|DICT|INTERRES
   105   54   55 1    
   106   54  120 1    
   107   55   56 1    
   108   55   57 1    
   109   55  121 1    
   110   56  122 1    
   111   56  123 1    
   112   56  124 1    
   113   57   58 2    
   114   57   59 am   BACKBONE|DICT|INTERRES
   115   59   60 1    
   116   59  125 1    
   117   60   61 1    
   118   60   62 1    
   119   60  126 1    
   120   61  127 1    
   121   61  128 1    
   122   61  129 1    
   123   62   63 2    
   124   62   64 am   BACKBONE|DICT|INTERRES
   125   64   65 1    
   126   64  130 1    
   127   65   66 1    
   128   65   69 1    
   129   65  131 1    
   130   66   67 am   BACKBONE|DICT|INTERRES
   131   66   68 2    
   132   67  132 1    
   133   67  133 1    
   134   69   70 1    
   135   69  134 1    
   136   69  135 1    
   137   70   71 1    
   138   71  136 1    
   139   71  137 1    
@<TRIPOS>SUBSTRUCTURE
     1 UNK         1 GROUP             0       ****    0 ROOT    
