@<TRIPOS>MOLECULE
3R137
137   139    1
SMALL
USER_CHARGES


@<TRIPOS>ATOM
      1 CA         24.9809   -5.7717   -1.7115 C.3       0 UNK        -0.2020 
      2 C          25.6565   -4.6183   -0.9863 C.2       0 UNK         0.4855 
      3 O          24.9752   -3.7906   -0.3797 O.2       0 UNK        -0.5197 
      4 N          26.9920   -4.5508   -1.0531 N.am      1 UNK        -0.4892 
      5 CA         27.8346   -3.4849   -0.4988 C.3       1 UNK         0.0835 
      6 C6         29.3578   -3.7868   -0.6274 C.3       12 UNK        -0.0855 
      7 S7         29.8503   -4.7921   -2.0795 S.3       12 UNK        -0.2931 
      8 C8         31.3034   -3.9039   -2.7234 C.3       12 UNK         0.0378 
      9 C9         30.9198   -2.9344   -3.8293 C.ar      12 UNK        -0.0802 
     10 C10        30.6670   -3.4155   -5.1168 C.ar      12 UNK        -0.0944 
     11 C11        30.3076   -2.5411   -6.1457 C.ar      12 UNK        -0.0787 
     12 C12        30.2201   -1.1718   -5.8813 C.ar      12 UNK        -0.0862 
     13 C13        30.4661   -0.6762   -4.5957 C.ar      12 UNK        -0.0733 
     14 C14        30.8183   -1.5645   -3.5745 C.ar      12 UNK        -0.0832 
     15 C15        30.3660    0.8142   -4.2968 C.3       12 UNK         0.0240 
     16 S16        28.8978    1.1995   -3.2918 S.3       12 UNK        -0.2522 
     17 C17        27.7510    1.9425   -4.5016 C.3       12 UNK        -0.0967 
     18 CA         27.3378    1.0097   -5.6659 C.3       5 UNK         0.0660 
     19 N          26.8446   -0.2971   -5.2084 N.am      5 UNK        -0.4015 
     20 C          26.5773   -1.3510   -5.9964 C.2       4 UNK         0.4946 
     21 O          26.7237   -1.3379   -7.2189 O.2       4 UNK        -0.5353 
     22 CA         25.9724   -2.5988   -5.3311 C.3       4 UNK         0.0277 
     23 CB         27.0501   -3.6554   -5.0430 C.3       4 UNK        -0.1981 
     24 N          25.2477   -2.2725   -4.0999 N.am      4 UNK        -0.4209 
     25 C          24.0337   -1.6992   -4.0768 C.2       3 UNK         0.4942 
     26 O          23.3930   -1.4311   -5.0932 O.2       3 UNK        -0.5208 
     27 CA         23.4348   -1.3372   -2.7061 C.3       3 UNK         0.0250 
     28 CB         22.4682   -2.4326   -2.2292 C.3       3 UNK        -0.1990 
     29 N          24.4574   -1.0949   -1.6853 N.am      3 UNK        -0.4232 
     30 C          25.2116    0.0148   -1.6407 C.2       2 UNK         0.4993 
     31 O          25.0636    0.9652   -2.4085 O.2       2 UNK        -0.5286 
     32 CA         26.3410    0.0718   -0.5939 C.3       2 UNK         0.0209 
     33 CB         25.8605    0.7967    0.6734 C.3       2 UNK        -0.1931 
     34 N          26.8897   -1.2377   -0.2244 N.am      2 UNK        -0.4546 
     35 C          27.4399   -2.1121   -1.0794 C.2       1 UNK         0.5154 
     36 O          27.5618   -1.8974   -2.2845 O.2       1 UNK        -0.5181 
     37 C          26.3821    1.7416   -6.6343 C.2       5 UNK         0.5014 
     38 O          26.8215    2.6717   -7.3120 O.2       5 UNK        -0.5248 
     39 N          25.1231    1.2876   -6.7453 N.am      6 UNK        -0.4434 
     40 CA         24.1587    1.6956   -7.7726 C.3       6 UNK         0.0363 
     41 CB         22.8123    1.0085   -7.4966 C.3       6 UNK        -0.1936 
     42 C          24.6236    1.4101   -9.2172 C.2       6 UNK         0.5081 
     43 O          24.1186    2.0453  -10.1429 O.2       6 UNK        -0.5248 
     44 N          25.5954    0.4997   -9.3909 N.am      7 UNK        -0.4718 
     45 CA         26.3005    0.2494  -10.6526 C.3       7 UNK         0.0273 
     46 CB         27.0915   -1.0635  -10.5229 C.3       7 UNK        -0.1935 
     47 C          27.2388    1.3970  -11.0896 C.2       7 UNK         0.5018 
     48 O          27.6657    1.3913  -12.2450 O.2       7 UNK        -0.5186 
     49 N          27.5237    2.3401  -10.1757 N.am      8 UNK        -0.4240 
     50 CA         28.4418    3.4822  -10.2562 C.3       8 UNK         0.0235 
     51 CB         28.2327    4.3351  -11.5241 C.3       8 UNK        -0.2000 
     52 C          29.9090    3.0555  -10.0828 C.2       8 UNK         0.4941 
     53 O          30.3671    2.1272  -10.7525 O.2       8 UNK        -0.5273 
     54 N          30.6107    3.7738   -9.1911 N.am      9 UNK        -0.4262 
     55 CA         31.9802    3.5427   -8.7036 C.3       9 UNK         0.0264 
     56 CB         33.0014    3.5517   -9.8623 C.3       9 UNK        -0.1955 
     57 C          32.1059    2.2724   -7.8376 C.2       9 UNK         0.5031 
     58 O          31.1717    1.4738   -7.7530 O.2       9 UNK        -0.5390 
     59 N          33.2600    2.1218   -7.1755 N.am      10 UNK        -0.4204 
     60 CA         33.6019    0.9362   -6.3892 C.3       10 UNK         0.0237 
     61 CB         34.6561    1.3039   -5.3322 C.3       10 UNK        -0.1985 
     62 C          34.1151   -0.1735   -7.3160 C.2       10 UNK         0.4970 
     63 O          35.0061    0.0864   -8.1283 O.2       10 UNK        -0.4914 
     64 N          33.5576   -1.3800   -7.1717 N.am      11 UNK        -0.4285 
     65 CA         33.9007   -2.5523   -7.9948 C.3       11 UNK         0.1007 
     66 C          35.1811   -3.3087   -7.5356 C.2       11 UNK         0.5703 
     67 N          35.7877   -2.9704   -6.4035 N.am      11 UNK        -0.7361 
     68 O          35.6411   -4.2140   -8.2276 O.2       11 UNK        -0.4986 
     69 C69        32.6994   -3.5207   -8.1555 C.3       12 UNK        -0.0947 
     70 S70        31.2090   -2.6777   -8.7907 S.3       12 UNK        -0.2240 
     71 C71        29.9642   -3.0850   -7.5271 C.3       12 UNK         0.0194 
     72 H72        24.4246   -5.4001   -2.5714 H         1 UNK         0.0906 
     73 H73        25.7029   -6.5072   -2.0660 H         1 UNK         0.0906 
     74 H74        24.2830   -6.2775   -1.0448 H         1 UNK         0.0906 
     75 H75        27.5032   -5.2349   -1.5948 H         1 UNK         0.3140 
     76 H76        27.6132   -3.4527    0.5704 H         1 UNK         0.1085 
     77 H77        29.6751   -4.3503    0.2515 H         1 UNK         0.0836 
     78 H78        29.9432   -2.8657   -0.5948 H         1 UNK         0.0836 
     79 H79        32.0081   -4.6357   -3.1213 H         1 UNK         0.0731 
     80 H80        31.8288   -3.3932   -1.9151 H         1 UNK         0.0731 
     81 H81        30.7295   -4.4778   -5.3095 H         1 UNK         0.1312 
     82 H82        29.9514   -0.5006   -6.6840 H         1 UNK         0.1406 
     83 H83        31.0004   -1.1866   -2.5778 H         1 UNK         0.1631 
     84 H84        30.3566    1.4024   -5.2146 H         1 UNK         0.0717 
     85 H85        31.2552    1.1273   -3.7479 H         1 UNK         0.0717 
     86 H86        26.8673    2.2746   -3.9535 H         1 UNK         0.0934 
     87 H87        28.2190    2.8496   -4.8897 H         1 UNK         0.0934 
     88 H88        28.2291    0.8128   -6.2594 H         1 UNK         0.0739 
     89 H89        26.7473   -0.4072   -4.2078 H         1 UNK         0.3093 
     90 H90        25.2632   -3.0341   -6.0386 H         1 UNK         0.0818 
     91 H91        27.8467   -3.2645   -4.4103 H         1 UNK         0.0819 
     92 H92        26.6307   -4.5326   -4.5508 H         1 UNK         0.0819 
     93 H93        27.5146   -3.9940   -5.9694 H         1 UNK         0.0819 
     94 H94        25.7643   -2.3831   -3.2346 H         1 UNK         0.3041 
     95 H95        22.8579   -0.4186   -2.8350 H         1 UNK         0.0784 
     96 H96        21.6531   -2.5671   -2.9417 H         1 UNK         0.0793 
     97 H97        22.9651   -3.3962   -2.1219 H         1 UNK         0.0793 
     98 H98        22.0200   -2.1772   -1.2689 H         1 UNK         0.0793 
     99 H99        24.6481   -1.8530   -1.0365 H         1 UNK         0.3024 
    100 H100       27.1533    0.6540   -1.0318 H         1 UNK         0.1171 
    101 H101       26.6751    0.9379    1.3840 H         1 UNK         0.0786 
    102 H102       25.4699    1.7865    0.4319 H         1 UNK         0.0786 
    103 H103       25.0646    0.2461    1.1767 H         1 UNK         0.0786 
    104 H104       26.7848   -1.5076    0.7433 H         1 UNK         0.2977 
    105 H105       24.8426    0.5177   -6.1534 H         1 UNK         0.3127 
    106 H106       24.0207    2.7751   -7.6839 H         1 UNK         0.0770 
    107 H107       22.8940   -0.0774   -7.5624 H         1 UNK         0.0814 
    108 H108       22.0573    1.3233   -8.2184 H         1 UNK         0.0814 
    109 H109       22.4342    1.2559   -6.5044 H         1 UNK         0.0814 
    110 H110       25.9355   -0.0130   -8.5819 H         1 UNK         0.2983 
    111 H111       25.5530    0.1252  -11.4391 H         1 UNK         0.0947 
    112 H112       27.5819   -1.3204  -11.4628 H         1 UNK         0.0806 
    113 H113       26.4408   -1.8971  -10.2579 H         1 UNK         0.0806 
    114 H114       27.8686   -0.9904   -9.7604 H         1 UNK         0.0806 
    115 H115       27.1148    2.2197   -9.2543 H         1 UNK         0.3000 
    116 H116       28.1715    4.1076   -9.4035 H         1 UNK         0.0850 
    117 H117       28.8010    5.2638  -11.4617 H         1 UNK         0.0810 
    118 H118       27.1844    4.6027  -11.6563 H         1 UNK         0.0810 
    119 H119       28.5661    3.8183  -12.4244 H         1 UNK         0.0810 
    120 H120       30.1157    4.5067   -8.7020 H         1 UNK         0.3040 
    121 H121       32.2059    4.3888   -8.0526 H         1 UNK         0.0766 
    122 H122       32.8681    4.4238  -10.5024 H         1 UNK         0.0812 
    123 H123       32.9169    2.6618  -10.4868 H         1 UNK         0.0812 
    124 H124       34.0250    3.5826   -9.4881 H         1 UNK         0.0812 
    125 H125       33.9975    2.7974   -7.3150 H         1 UNK         0.3205 
    126 H126       32.7121    0.5826   -5.8680 H         1 UNK         0.0754 
    127 H127       34.9096    0.4390   -4.7177 H         1 UNK         0.0769 
    128 H128       34.2888    2.0802   -4.6606 H         1 UNK         0.0769 
    129 H129       35.5801    1.6629   -5.7875 H         1 UNK         0.0769 
    130 H130       32.8175   -1.5156   -6.4979 H         1 UNK         0.2981 
    131 H131       34.1342   -2.1873   -8.9970 H         1 UNK         0.0541 
    132 H132       36.6192   -3.4656   -6.1225 H         1 UNK         0.3459 
    133 H133       35.4225   -2.2282   -5.8299 H         1 UNK         0.3459 
    134 H134       32.9456   -4.3182   -8.8588 H         1 UNK         0.0612 
    135 H135       32.4781   -4.0141   -7.2087 H         1 UNK         0.0612 
    136 H136       29.0050   -2.6737   -7.8433 H         1 UNK         0.0624 
    137 H137       29.8338   -4.1678   -7.4958 H         1 UNK         0.0624 
@<TRIPOS>BOND
     1    1    2 1    
     2    1   72 1    
     3    1   73 1    
     4    1   74 1    
     5    2    3 2    
     6    2    4 am   BACKBONE|DICT|INTERRES
     7    4    5 1    
     8    4   75 1    
     9    5    6 1    
    10    5   35 1    
    11    5   76 1    
    12    6    7 1    
    13    6   77 1    
    14    6   78 1    
    15    7    8 1    
    16    8    9 1    
    17    8   79 1    
    18    8   80 1    
    19    9   10 ar   
    20    9   14 ar   
    21   10   11 ar   
    22   10   81 1    
    23   11   12 ar   
    24   11   71 1    
    25   12   13 ar   
    26   12   82 1    
    27   13   14 ar   
    28   13   15 1    
    29   14   83 1    
    30   15   16 1    
    31   15   84 1    
    32   15   85 1    
    33   16   17 1    
    34   17   18 1    
    35   17   86 1    
    36   17   87 1    
    37   18   19 1    
    38   18   37 1    
    39   18   88 1    
    40   19   20 am   BACKBONE|DICT|INTERRES
    41   19   89 1    
    42   20   21 2    
    43   20   22 1    
    44   22   23 1    
    45   22   24 1    
    46   22   90 1    
    47   23   91 1    
    48   23   92 1    
    49   23   93 1    
    50   24   25 am   BACKBONE|DICT|INTERRES
    51   24   94 1    
    52   25   26 2    
    53   25   27 1    
    54   27   28 1    
    55   27   29 1    
    56   27   95 1    
    57   28   96 1    
    58   28   97 1    
    59   28   98 1    
    60   29   30 am   BACKBONE|DICT|INTERRES
    61   29   99 1    
    62   30   31 2    
    63   30   32 1    
    64   32   33 1    
    65   32   34 1    
    66   32  100 1    
    67   33  101 1    
    68   33  102 1    
    69   33  103 1    
    70   34   35 am   BACKBONE|DICT|INTERRES
    71   34  104 1    
    72   35   36 2    
    73   37   38 2    
    74   37   39 am   BACKBONE|DICT|INTERRES
    75   39   40 1    
    76   39  105 1    
    77   40   41 1    
    78   40   42 1    
    79   40  106 1    
    80   41  107 1    
    81   41  108 1    
    82   41  109 1    
    83   42   43 2    
    84   42   44 am   BACKBONE|DICT|INTERRES
    85   44   45 1    
    86   44  110 1    
    87   45   46 1    
    88   45   47 1    
    89   45  111 1    
    90   46  112 1    
    91   46  113 1    
    92   46  114 1    
    93   47   48 2    
    94   47   49 am   BACKBONE|DICT|INTERRES
    95   49   50 1    
    96   49  115 1    
    97   50   51 1    
    98   50   52 1    
    99   50  116 1    
   100   51  117 1    
   101   51  118 1    
   102   51  119 1    
   103   52   53 2    
   104   52   54 am   BACKBONE|DICT|INTERRES
   105   54   55 1    
   106   54  120 1    
   107   55   56 1    
   108   55   57 1    
   109   55  121 1    
   110   56  122 1    
   111   56  123 1    
   112   56  124 1    
   113   57   58 2    
   114   57   59 am   BACKBONE|DICT|INTERRES
   115   59   60 1    
   116   59  125 1    
   117   60   61 1    
   118   60   62 1    
   119   60  126 1    
   120   61  127 1    
   121   61  128 1    
   122   61  129 1    
   123   62   63 2    
   124   62   64 am   BACKBONE|DICT|INTERRES
   125   64   65 1    
   126   64  130 1    
   127   65   66 1    
   128   65   69 1    
   129   65  131 1    
   130   66   67 am   BACKBONE|DICT|INTERRES
   131   66   68 2    
   132   67  132 1    
   133   67  133 1    
   134   69   70 1    
   135   69  134 1    
   136   69  135 1    
   137   70   71 1    
   138   71  136 1    
   139   71  137 1    
@<TRIPOS>SUBSTRUCTURE
     1 UNK         1 GROUP             0       ****    0 ROOT    
