@<TRIPOS>MOLECULE
3R137
137   139    1
SMALL
USER_CHARGES


@<TRIPOS>ATOM
      1 CA         28.5862   -3.2855    1.8960 C.3       0 UNK        -0.2020 
      2 C          28.0835   -2.0093    1.2379 C.2       0 UNK         0.4855 
      3 O          27.4751   -1.1744    1.9075 O.2       0 UNK        -0.5197 
      4 N          28.3377   -1.8521   -0.0680 N.am      1 UNK        -0.4892 
      5 CA         27.9175   -0.6964   -0.8718 C.3       1 UNK         0.0835 
      6 C6         28.6516   -0.6391   -2.2370 C.3       12 UNK        -0.0855 
      7 S7         30.4284   -0.2409   -2.0777 S.3       12 UNK        -0.2931 
      8 C8         31.2509   -1.8671   -1.9636 C.3       12 UNK         0.0378 
      9 C9         31.1567   -2.6738   -3.2516 C.ar      12 UNK        -0.0802 
     10 C10        32.0596   -2.4496   -4.2961 C.ar      12 UNK        -0.0944 
     11 C11        31.9825   -3.1959   -5.4772 C.ar      12 UNK        -0.0787 
     12 C12        30.9852   -4.1677   -5.6116 C.ar      12 UNK        -0.0862 
     13 C13        30.0620   -4.3818   -4.5836 C.ar      12 UNK        -0.0733 
     14 C14        30.1716   -3.6539   -3.3959 C.ar      12 UNK        -0.0832 
     15 C15        28.8887   -5.3311   -4.7810 C.3       12 UNK         0.0240 
     16 S16        27.6265   -4.6552   -5.9200 S.3       12 UNK        -0.2522 
     17 C17        27.5382   -2.8872   -5.4615 C.3       12 UNK        -0.0967 
     18 CA         26.7696   -2.0622   -6.5167 C.3       5 UNK         0.0660 
     19 N          25.3239   -2.2615   -6.4186 N.am      5 UNK        -0.4015 
     20 C          24.4779   -2.2838   -7.4556 C.2       4 UNK         0.4946 
     21 O          24.8278   -2.1691   -8.6309 O.2       4 UNK        -0.5353 
     22 CA         22.9823   -2.4620   -7.1321 C.3       4 UNK         0.0277 
     23 CB         22.6085   -3.9532   -7.1344 C.3       4 UNK        -0.1981 
     24 N          22.5852   -1.8646   -5.8531 N.am      4 UNK        -0.4209 
     25 C          22.5491   -0.5462   -5.6139 C.2       3 UNK         0.4942 
     26 O          22.8085    0.3103   -6.4597 O.2       3 UNK        -0.5208 
     27 CA         22.1933   -0.1027   -4.1816 C.3       3 UNK         0.0250 
     28 CB         20.6690    0.0267   -4.0296 C.3       3 UNK        -0.1990 
     29 N          22.7214   -0.9368   -3.0897 N.am      3 UNK        -0.4232 
     30 C          23.9909   -1.3432   -2.9447 C.2       2 UNK         0.4993 
     31 O          24.8525   -1.2297   -3.8177 O.2       2 UNK        -0.5286 
     32 CA         24.3611   -2.0205   -1.6140 C.3       2 UNK         0.0209 
     33 CB         24.0508   -3.5246   -1.6812 C.3       2 UNK        -0.1931 
     34 N          25.7811   -1.8451   -1.2861 N.am      2 UNK        -0.4546 
     35 C          26.3881   -0.6654   -1.0774 C.2       1 UNK         0.5154 
     36 O          25.7937    0.4129   -1.0327 O.2       1 UNK        -0.5181 
     37 C          27.1346   -0.5718   -6.4026 C.2       5 UNK         0.5014 
     38 O          28.1093   -0.1536   -7.0242 O.2       5 UNK        -0.5248 
     39 N          26.3602    0.2172   -5.6439 N.am      6 UNK        -0.4434 
     40 CA         26.5616    1.6555   -5.4232 C.3       6 UNK         0.0363 
     41 CB         25.4867    2.1732   -4.4563 C.3       6 UNK        -0.1936 
     42 C          26.5769    2.5063   -6.7082 C.2       6 UNK         0.5081 
     43 O          27.1952    3.5700   -6.7170 O.2       6 UNK        -0.5248 
     44 N          25.9291    2.0154   -7.7739 N.am      7 UNK        -0.4718 
     45 CA         25.9847    2.5860   -9.1219 C.3       7 UNK         0.0273 
     46 CB         24.8905    1.9354   -9.9836 C.3       7 UNK        -0.1935 
     47 C          27.3637    2.4328   -9.7961 C.2       7 UNK         0.5018 
     48 O          27.7184    3.2708  -10.6260 O.2       7 UNK        -0.5186 
     49 N          28.1082    1.3773   -9.4377 N.am      8 UNK        -0.4240 
     50 CA         29.4705    1.1079   -9.9034 C.3       8 UNK         0.0235 
     51 CB         29.6435   -0.4060  -10.1043 C.3       8 UNK        -0.2000 
     52 C          30.5193    1.6544   -8.9195 C.2       8 UNK         0.4941 
     53 O          31.5838    2.0881   -9.3633 O.2       8 UNK        -0.5273 
     54 N          30.1934    1.6452   -7.6173 N.am      9 UNK        -0.4262 
     55 CA         30.9351    2.2070   -6.4832 C.3       9 UNK         0.0264 
     56 CB         30.9466    3.7500   -6.5472 C.3       9 UNK        -0.1955 
     57 C          32.3383    1.5972   -6.3248 C.2       9 UNK         0.5031 
     58 O          32.4903    0.6109   -5.6064 O.2       9 UNK        -0.5390 
     59 N          33.3367    2.1907   -6.9918 N.am      10 UNK        -0.4204 
     60 CA         34.7070    1.6789   -7.0655 C.3       10 UNK         0.0237 
     61 CB         35.6376    2.7998   -7.5568 C.3       10 UNK        -0.1985 
     62 C          34.8353    0.4369   -7.9678 C.2       10 UNK         0.4970 
     63 O          35.7814   -0.3314   -7.7884 O.2       10 UNK        -0.4914 
     64 N          33.8930    0.2674   -8.9065 N.am      11 UNK        -0.4285 
     65 CA         33.8246   -0.8231   -9.8908 C.3       11 UNK         0.1007 
     66 C          34.9934   -0.7897  -10.9242 C.2       11 UNK         0.5703 
     67 N          35.2268   -1.8678  -11.6622 N.am      11 UNK        -0.7361 
     68 O          35.6644    0.2250  -11.1085 O.2       11 UNK        -0.4986 
     69 C69        33.5971   -2.2237   -9.2427 C.3       12 UNK        -0.0947 
     70 S70        32.1774   -2.2805   -8.0944 S.3       12 UNK        -0.2240 
     71 C71        32.9773   -2.9577   -6.6054 C.3       12 UNK         0.0194 
     72 H72        27.7494   -3.8501    2.3066 H         1 UNK         0.0906 
     73 H73        29.2664   -3.0433    2.7121 H         1 UNK         0.0906 
     74 H74        29.1164   -3.9282    1.1933 H         1 UNK         0.0906 
     75 H75        28.8546   -2.5660   -0.5569 H         1 UNK         0.3140 
     76 H76        28.1727    0.2074   -0.3129 H         1 UNK         0.1085 
     77 H77        28.2192    0.1447   -2.8631 H         1 UNK         0.0836 
     78 H78        28.5156   -1.5623   -2.7983 H         1 UNK         0.0836 
     79 H79        32.3024   -1.7014   -1.7237 H         1 UNK         0.0731 
     80 H80        30.8450   -2.4314   -1.1242 H         1 UNK         0.0731 
     81 H81        32.8191   -1.6866   -4.1903 H         1 UNK         0.1312 
     82 H82        30.9009   -4.7262   -6.5340 H         1 UNK         0.1406 
     83 H83        29.4617   -3.8248   -2.5992 H         1 UNK         0.1631 
     84 H84        28.4119   -5.5564   -3.8258 H         1 UNK         0.0717 
     85 H85        29.2495   -6.2828   -5.1734 H         1 UNK         0.0717 
     86 H86        27.0904   -2.7878   -4.4710 H         1 UNK         0.0934 
     87 H87        28.5543   -2.4989   -5.3820 H         1 UNK         0.0934 
     88 H88        27.1092   -2.3813   -7.5049 H         1 UNK         0.0739 
     89 H89        24.9461   -2.2761   -5.4774 H         1 UNK         0.3093 
     90 H90        22.4157   -1.9674   -7.9243 H         1 UNK         0.0818 
     91 H91        22.8688   -4.4182   -8.0865 H         1 UNK         0.0819 
     92 H92        23.1309   -4.5032   -6.3505 H         1 UNK         0.0819 
     93 H93        21.5373   -4.0949   -6.9895 H         1 UNK         0.0819 
     94 H94        22.3557   -2.4958   -5.0992 H         1 UNK         0.3041 
     95 H95        22.6241    0.8904   -4.0445 H         1 UNK         0.0784 
     96 H96        20.2492    0.6584   -4.8140 H         1 UNK         0.0793 
     97 H97        20.1731   -0.9429   -4.0919 H         1 UNK         0.0793 
     98 H98        20.4008    0.4811   -3.0756 H         1 UNK         0.0793 
     99 H99        22.0799   -1.1143   -2.3299 H         1 UNK         0.3024 
    100 H100       23.7733   -1.5642   -0.8145 H         1 UNK         0.1171 
    101 H101       24.6245   -4.0201   -2.4660 H         1 UNK         0.0786 
    102 H102       24.2775   -4.0194   -0.7365 H         1 UNK         0.0786 
    103 H103       22.9946   -3.7004   -1.8897 H         1 UNK         0.0786 
    104 H104       26.3517   -2.6765   -1.2945 H         1 UNK         0.2977 
    105 H105       25.6316   -0.2275   -5.0877 H         1 UNK         0.3127 
    106 H106       27.5370    1.7733   -4.9469 H         1 UNK         0.0770 
    107 H107       25.6604    3.2203   -4.2047 H         1 UNK         0.0814 
    108 H108       24.4912    2.1050   -4.8950 H         1 UNK         0.0814 
    109 H109       25.4845    1.6118   -3.5219 H         1 UNK         0.0814 
    110 H110       25.4142    1.1533   -7.6602 H         1 UNK         0.2983 
    111 H111       25.7742    3.6552   -9.0466 H         1 UNK         0.0947 
    112 H112       25.0375    0.8584  -10.0780 H         1 UNK         0.0806 
    113 H113       24.8860    2.3543  -10.9909 H         1 UNK         0.0806 
    114 H114       23.9000    2.1025   -9.5597 H         1 UNK         0.0806 
    115 H115       27.7670    0.7714   -8.6984 H         1 UNK         0.3000 
    116 H116       29.6322    1.5961  -10.8669 H         1 UNK         0.0850 
    117 H117       30.6267   -0.6358  -10.5129 H         1 UNK         0.0810 
    118 H118       28.9052   -0.7998  -10.8027 H         1 UNK         0.0810 
    119 H119       29.5435   -0.9557   -9.1676 H         1 UNK         0.0810 
    120 H120       29.3517    1.1316   -7.3626 H         1 UNK         0.3040 
    121 H121       30.3762    1.9238   -5.5895 H         1 UNK         0.0766 
    122 H122       31.5114    4.1729   -5.7152 H         1 UNK         0.0812 
    123 H123       29.9337    4.1474   -6.4812 H         1 UNK         0.0812 
    124 H124       31.3846    4.1287   -7.4708 H         1 UNK         0.0812 
    125 H125       33.1022    2.9652   -7.5971 H         1 UNK         0.3205 
    126 H126       35.0202    1.3887   -6.0602 H         1 UNK         0.0754 
    127 H127       36.6732    2.4584   -7.5928 H         1 UNK         0.0769 
    128 H128       35.6054    3.6633   -6.8920 H         1 UNK         0.0769 
    129 H129       35.3708    3.1357   -8.5598 H         1 UNK         0.0769 
    130 H130       33.1658    0.9703   -8.9928 H         1 UNK         0.2981 
    131 H131       32.9411   -0.5954  -10.4855 H         1 UNK         0.0541 
    132 H132       34.6795   -2.7064  -11.5505 H         1 UNK         0.3459 
    133 H133       35.9684   -1.8406  -12.3444 H         1 UNK         0.3459 
    134 H134       34.5011   -2.5510   -8.7268 H         1 UNK         0.0612 
    135 H135       33.4018   -2.9726  -10.0112 H         1 UNK         0.0612 
    136 H136       33.7642   -2.2713   -6.2878 H         1 UNK         0.0624 
    137 H137       33.4652   -3.9008   -6.8551 H         1 UNK         0.0624 
@<TRIPOS>BOND
     1    1    2 1    
     2    1   72 1    
     3    1   73 1    
     4    1   74 1    
     5    2    3 2    
     6    2    4 am   BACKBONE|DICT|INTERRES
     7    4    5 1    
     8    4   75 1    
     9    5    6 1    
    10    5   35 1    
    11    5   76 1    
    12    6    7 1    
    13    6   77 1    
    14    6   78 1    
    15    7    8 1    
    16    8    9 1    
    17    8   79 1    
    18    8   80 1    
    19    9   10 ar   
    20    9   14 ar   
    21   10   11 ar   
    22   10   81 1    
    23   11   12 ar   
    24   11   71 1    
    25   12   13 ar   
    26   12   82 1    
    27   13   14 ar   
    28   13   15 1    
    29   14   83 1    
    30   15   16 1    
    31   15   84 1    
    32   15   85 1    
    33   16   17 1    
    34   17   18 1    
    35   17   86 1    
    36   17   87 1    
    37   18   19 1    
    38   18   37 1    
    39   18   88 1    
    40   19   20 am   BACKBONE|DICT|INTERRES
    41   19   89 1    
    42   20   21 2    
    43   20   22 1    
    44   22   23 1    
    45   22   24 1    
    46   22   90 1    
    47   23   91 1    
    48   23   92 1    
    49   23   93 1    
    50   24   25 am   BACKBONE|DICT|INTERRES
    51   24   94 1    
    52   25   26 2    
    53   25   27 1    
    54   27   28 1    
    55   27   29 1    
    56   27   95 1    
    57   28   96 1    
    58   28   97 1    
    59   28   98 1    
    60   29   30 am   BACKBONE|DICT|INTERRES
    61   29   99 1    
    62   30   31 2    
    63   30   32 1    
    64   32   33 1    
    65   32   34 1    
    66   32  100 1    
    67   33  101 1    
    68   33  102 1    
    69   33  103 1    
    70   34   35 am   BACKBONE|DICT|INTERRES
    71   34  104 1    
    72   35   36 2    
    73   37   38 2    
    74   37   39 am   BACKBONE|DICT|INTERRES
    75   39   40 1    
    76   39  105 1    
    77   40   41 1    
    78   40   42 1    
    79   40  106 1    
    80   41  107 1    
    81   41  108 1    
    82   41  109 1    
    83   42   43 2    
    84   42   44 am   BACKBONE|DICT|INTERRES
    85   44   45 1    
    86   44  110 1    
    87   45   46 1    
    88   45   47 1    
    89   45  111 1    
    90   46  112 1    
    91   46  113 1    
    92   46  114 1    
    93   47   48 2    
    94   47   49 am   BACKBONE|DICT|INTERRES
    95   49   50 1    
    96   49  115 1    
    97   50   51 1    
    98   50   52 1    
    99   50  116 1    
   100   51  117 1    
   101   51  118 1    
   102   51  119 1    
   103   52   53 2    
   104   52   54 am   BACKBONE|DICT|INTERRES
   105   54   55 1    
   106   54  120 1    
   107   55   56 1    
   108   55   57 1    
   109   55  121 1    
   110   56  122 1    
   111   56  123 1    
   112   56  124 1    
   113   57   58 2    
   114   57   59 am   BACKBONE|DICT|INTERRES
   115   59   60 1    
   116   59  125 1    
   117   60   61 1    
   118   60   62 1    
   119   60  126 1    
   120   61  127 1    
   121   61  128 1    
   122   61  129 1    
   123   62   63 2    
   124   62   64 am   BACKBONE|DICT|INTERRES
   125   64   65 1    
   126   64  130 1    
   127   65   66 1    
   128   65   69 1    
   129   65  131 1    
   130   66   67 am   BACKBONE|DICT|INTERRES
   131   66   68 2    
   132   67  132 1    
   133   67  133 1    
   134   69   70 1    
   135   69  134 1    
   136   69  135 1    
   137   70   71 1    
   138   71  136 1    
   139   71  137 1    
@<TRIPOS>SUBSTRUCTURE
     1 UNK         1 GROUP             0       ****    0 ROOT    
