@<TRIPOS>MOLECULE
3R137
137   139    1
SMALL
USER_CHARGES


@<TRIPOS>ATOM
      1 CA         25.8228   -5.7192   -6.0012 C.3       0 UNK        -0.2020 
      2 C          26.2722   -5.1502   -4.6644 C.2       0 UNK         0.4855 
      3 O          25.4330   -4.8144   -3.8282 O.2       0 UNK        -0.5197 
      4 N          27.5896   -5.0226   -4.4566 N.am      1 UNK        -0.4892 
      5 CA         28.1948   -4.4596   -3.2435 C.3       1 UNK         0.0835 
      6 C6         29.7375   -4.6501   -3.2210 C.3       12 UNK        -0.0855 
      7 S7         30.3241   -5.5022   -1.7143 S.3       12 UNK        -0.2931 
      8 C8         30.4490   -4.1625   -0.4795 C.3       12 UNK         0.0378 
      9 C9         31.2420   -2.9679   -0.9880 C.ar      12 UNK        -0.0802 
     10 C10        32.5918   -3.1038   -1.3260 C.ar      12 UNK        -0.0944 
     11 C11        33.2964   -2.0280   -1.8753 C.ar      12 UNK        -0.0787 
     12 C12        32.6529   -0.7988   -2.0456 C.ar      12 UNK        -0.0862 
     13 C13        31.3016   -0.6563   -1.7175 C.ar      12 UNK        -0.0733 
     14 C14        30.6061   -1.7380   -1.1740 C.ar      12 UNK        -0.0832 
     15 C15        30.5672    0.6316   -2.0439 C.3       12 UNK         0.0240 
     16 S16        30.2727    0.6947   -3.8333 S.3       12 UNK        -0.2522 
     17 C17        28.7832    1.7269   -3.9679 C.3       12 UNK        -0.0967 
     18 CA         28.2006    1.6300   -5.3970 C.3       5 UNK         0.0660 
     19 N          27.7387    0.2801   -5.7461 N.am      5 UNK        -0.4015 
     20 C          27.4477   -0.1138   -6.9942 C.2       4 UNK         0.4946 
     21 O          27.6519    0.5804   -7.9900 O.2       4 UNK        -0.5353 
     22 CA         26.8100   -1.4974   -7.1757 C.3       4 UNK         0.0277 
     23 CB         27.8852   -2.5859   -7.3213 C.3       4 UNK        -0.1981 
     24 N          25.8917   -1.8138   -6.0807 N.am      4 UNK        -0.4209 
     25 C          24.6925   -1.2303   -5.9283 C.2       3 UNK         0.4942 
     26 O          24.2170   -0.4360   -6.7382 O.2       3 UNK        -0.5208 
     27 CA         23.9107   -1.5387   -4.6404 C.3       3 UNK         0.0250 
     28 CB         22.9527   -2.7208   -4.8535 C.3       3 UNK        -0.1990 
     29 N          24.7891   -1.7971   -3.4961 N.am      3 UNK        -0.4232 
     30 C          25.5353   -0.8500   -2.9051 C.2       2 UNK         0.4993 
     31 O          25.5215    0.3339   -3.2430 O.2       2 UNK        -0.5286 
     32 CA         26.5112   -1.3001   -1.8018 C.3       2 UNK         0.0209 
     33 CB         25.8359   -1.2447   -0.4233 C.3       2 UNK        -0.1931 
     34 N          27.0709   -2.6383   -2.0230 N.am      2 UNK        -0.4546 
     35 C          27.7972   -2.9766   -3.0972 C.2       1 UNK         0.5154 
     36 O          28.0981   -2.1773   -3.9862 O.2       1 UNK        -0.5181 
     37 C          27.1010    2.6808   -5.6338 C.2       5 UNK         0.5014 
     38 O          27.3968    3.7315   -6.2029 O.2       5 UNK        -0.5248 
     39 N          25.8496    2.3671   -5.2633 N.am      6 UNK        -0.4434 
     40 CA         24.6691    3.1917   -5.5521 C.3       6 UNK         0.0363 
     41 CB         23.4360    2.5955   -4.8560 C.3       6 UNK        -0.1936 
     42 C          24.4086    3.3724   -7.0607 C.2       6 UNK         0.5081 
     43 O          24.0090    4.4582   -7.4805 O.2       6 UNK        -0.5248 
     44 N          24.6798    2.3244   -7.8510 N.am      7 UNK        -0.4718 
     45 CA         24.6350    2.3376   -9.3171 C.3       7 UNK         0.0273 
     46 CB         24.4898    0.8909   -9.8189 C.3       7 UNK        -0.1935 
     47 C          25.8560    3.0134   -9.9764 C.2       7 UNK         0.5018 
     48 O          25.8607    3.1568  -11.1996 O.2       7 UNK        -0.5186 
     49 N          26.8671    3.3922   -9.1784 N.am      8 UNK        -0.4240 
     50 CA         28.1501    3.9937   -9.5674 C.3       8 UNK         0.0235 
     51 CB         27.9431    5.3641  -10.2477 C.3       8 UNK        -0.2000 
     52 C          29.0708    3.0562  -10.3771 C.2       8 UNK         0.4941 
     53 O          29.9790    3.5381  -11.0566 O.2       8 UNK        -0.5273 
     54 N          28.8498    1.7397  -10.2709 N.am      9 UNK        -0.4262 
     55 CA         29.7133    0.6964  -10.8280 C.3       9 UNK         0.0264 
     56 CB         28.8558   -0.5244  -11.2019 C.3       9 UNK        -0.1955 
     57 C          30.8131    0.3005   -9.8286 C.2       9 UNK         0.5031 
     58 O          31.9543    0.0825  -10.2382 O.2       9 UNK        -0.5390 
     59 N          30.4390    0.2437   -8.5417 N.am      10 UNK        -0.4204 
     60 CA         31.2453   -0.1076   -7.3677 C.3       10 UNK         0.0237 
     61 CB         32.3518    0.9454   -7.1366 C.3       10 UNK        -0.1985 
     62 C          31.7782   -1.5551   -7.3760 C.2       10 UNK         0.4970 
     63 O          31.3784   -2.3664   -8.2135 O.2       10 UNK        -0.4914 
     64 N          32.6471   -1.8619   -6.4052 N.am      11 UNK        -0.4285 
     65 CA         33.3235   -3.1591   -6.2421 C.3       11 UNK         0.1007 
     66 C          34.4498   -3.4565   -7.2772 C.2       11 UNK         0.5703 
     67 N          34.8481   -2.5141   -8.1239 N.am      11 UNK        -0.7361 
     68 O          34.9624   -4.5725   -7.3217 O.2       11 UNK        -0.4986 
     69 C69        33.7985   -3.3715   -4.7781 C.3       12 UNK        -0.0947 
     70 S70        34.8924   -2.0418   -4.1562 S.3       12 UNK        -0.2240 
     71 C71        34.7321   -2.2129   -2.3457 C.3       12 UNK         0.0194 
     72 H72        26.6659   -6.0395   -6.6131 H         1 UNK         0.0906 
     73 H73        25.1743   -6.5803   -5.8421 H         1 UNK         0.0906 
     74 H74        25.2625   -4.9695   -6.5593 H         1 UNK         0.0906 
     75 H75        28.2352   -5.2960   -5.1834 H         1 UNK         0.3140 
     76 H76        27.7574   -5.0092   -2.4068 H         1 UNK         0.1085 
     77 H77        30.2841   -3.7160   -3.3667 H         1 UNK         0.0836 
     78 H78        30.0567   -5.2744   -4.0570 H         1 UNK         0.0836 
     79 H79        30.9284   -4.5533    0.4191 H         1 UNK         0.0731 
     80 H80        29.4426   -3.8636   -0.1824 H         1 UNK         0.0731 
     81 H81        33.0765   -4.0634   -1.2069 H         1 UNK         0.1312 
     82 H82        33.1860    0.0283   -2.4944 H         1 UNK         0.1406 
     83 H83        29.5568   -1.6328   -0.9370 H         1 UNK         0.1631 
     84 H84        31.1567    1.4962   -1.7360 H         1 UNK         0.0717 
     85 H85        29.6211    0.6834   -1.5035 H         1 UNK         0.0717 
     86 H86        28.0476    1.4163   -3.2245 H         1 UNK         0.0934 
     87 H87        29.0613    2.7549   -3.7264 H         1 UNK         0.0934 
     88 H88        29.0063    1.8805   -6.0913 H         1 UNK         0.0739 
     89 H89        27.6451   -0.3857   -4.9867 H         1 UNK         0.3093 
     90 H90        26.2350   -1.4763   -8.1038 H         1 UNK         0.0818 
     91 H91        28.5203   -2.3869   -8.1855 H         1 UNK         0.0819 
     92 H92        28.5407   -2.6426   -6.4529 H         1 UNK         0.0819 
     93 H93        27.4388   -3.5680   -7.4729 H         1 UNK         0.0819 
     94 H94        26.2509   -2.3960   -5.3365 H         1 UNK         0.3041 
     95 H95        23.3063   -0.6607   -4.4038 H         1 UNK         0.0784 
     96 H96        22.2356   -2.4987   -5.6451 H         1 UNK         0.0793 
     97 H97        23.4806   -3.6289   -5.1433 H         1 UNK         0.0793 
     98 H98        22.3810   -2.9376   -3.9510 H         1 UNK         0.0793 
     99 H99        24.8903   -2.7630   -3.2044 H         1 UNK         0.3024 
    100 H100       27.3415   -0.5908   -1.8046 H         1 UNK         0.1171 
    101 H101       26.5444   -1.4652    0.3755 H         1 UNK         0.0786 
    102 H102       25.4298   -0.2510   -0.2281 H         1 UNK         0.0786 
    103 H103       25.0111   -1.9544   -0.3477 H         1 UNK         0.0786 
    104 H104       26.8219   -3.3515   -1.3521 H         1 UNK         0.2977 
    105 H105       25.6956    1.5182   -4.7231 H         1 UNK         0.3127 
    106 H106       24.8517    4.1818   -5.1292 H         1 UNK         0.0770 
    107 H107       23.1817    1.6146   -5.2570 H         1 UNK         0.0814 
    108 H108       22.5648    3.2373   -4.9927 H         1 UNK         0.0814 
    109 H109       23.5962    2.4888   -3.7829 H         1 UNK         0.0814 
    110 H110       24.9217    1.4411   -7.4151 H         1 UNK         0.2983 
    111 H111       23.7511    2.8973   -9.6303 H         1 UNK         0.0947 
    112 H112       24.3792    0.8601  -10.9036 H         1 UNK         0.0806 
    113 H113       23.6112    0.4077   -9.3911 H         1 UNK         0.0806 
    114 H114       25.3614    0.2881   -9.5640 H         1 UNK         0.0806 
    115 H115       26.7621    3.2292   -8.1836 H         1 UNK         0.3000 
    116 H116       28.6789    4.1770   -8.6310 H         1 UNK         0.0850 
    117 H117       28.8928    5.8845  -10.3771 H         1 UNK         0.0810 
    118 H118       27.3010    6.0106   -9.6494 H         1 UNK         0.0810 
    119 H119       27.4932    5.2635  -11.2357 H         1 UNK         0.0810 
    120 H120       28.1203    1.4310   -9.6334 H         1 UNK         0.3040 
    121 H121       30.1954    1.0644  -11.7363 H         1 UNK         0.0766 
    122 H122       28.1093   -0.2665  -11.9533 H         1 UNK         0.0812 
    123 H123       28.3315   -0.9343  -10.3378 H         1 UNK         0.0812 
    124 H124       29.4737   -1.3216  -11.6174 H         1 UNK         0.0812 
    125 H125       29.4553    0.4164   -8.3504 H         1 UNK         0.3205 
    126 H126       30.5554   -0.0606   -6.5282 H         1 UNK         0.0754 
    127 H127       32.8190    0.8323   -6.1579 H         1 UNK         0.0769 
    128 H128       31.9442    1.9559   -7.1725 H         1 UNK         0.0769 
    129 H129       33.1388    0.8781   -7.8885 H         1 UNK         0.0769 
    130 H130       32.9205   -1.1500   -5.7440 H         1 UNK         0.2981 
    131 H131       32.5695   -3.9258   -6.4307 H         1 UNK         0.0541 
    132 H132       34.4253   -1.6006   -8.1086 H         1 UNK         0.3459 
    133 H133       35.5732   -2.7251   -8.7911 H         1 UNK         0.3459 
    134 H134       32.9171   -3.4332   -4.1398 H         1 UNK         0.0612 
    135 H135       34.3089   -4.3293   -4.6631 H         1 UNK         0.0612 
    136 H136       35.3664   -1.4687   -1.8624 H         1 UNK         0.0624 
    137 H137       35.1181   -3.1891   -2.0480 H         1 UNK         0.0624 
@<TRIPOS>BOND
     1    1    2 1    
     2    1   72 1    
     3    1   73 1    
     4    1   74 1    
     5    2    3 2    
     6    2    4 am   BACKBONE|DICT|INTERRES
     7    4    5 1    
     8    4   75 1    
     9    5    6 1    
    10    5   35 1    
    11    5   76 1    
    12    6    7 1    
    13    6   77 1    
    14    6   78 1    
    15    7    8 1    
    16    8    9 1    
    17    8   79 1    
    18    8   80 1    
    19    9   10 ar   
    20    9   14 ar   
    21   10   11 ar   
    22   10   81 1    
    23   11   12 ar   
    24   11   71 1    
    25   12   13 ar   
    26   12   82 1    
    27   13   14 ar   
    28   13   15 1    
    29   14   83 1    
    30   15   16 1    
    31   15   84 1    
    32   15   85 1    
    33   16   17 1    
    34   17   18 1    
    35   17   86 1    
    36   17   87 1    
    37   18   19 1    
    38   18   37 1    
    39   18   88 1    
    40   19   20 am   BACKBONE|DICT|INTERRES
    41   19   89 1    
    42   20   21 2    
    43   20   22 1    
    44   22   23 1    
    45   22   24 1    
    46   22   90 1    
    47   23   91 1    
    48   23   92 1    
    49   23   93 1    
    50   24   25 am   BACKBONE|DICT|INTERRES
    51   24   94 1    
    52   25   26 2    
    53   25   27 1    
    54   27   28 1    
    55   27   29 1    
    56   27   95 1    
    57   28   96 1    
    58   28   97 1    
    59   28   98 1    
    60   29   30 am   BACKBONE|DICT|INTERRES
    61   29   99 1    
    62   30   31 2    
    63   30   32 1    
    64   32   33 1    
    65   32   34 1    
    66   32  100 1    
    67   33  101 1    
    68   33  102 1    
    69   33  103 1    
    70   34   35 am   BACKBONE|DICT|INTERRES
    71   34  104 1    
    72   35   36 2    
    73   37   38 2    
    74   37   39 am   BACKBONE|DICT|INTERRES
    75   39   40 1    
    76   39  105 1    
    77   40   41 1    
    78   40   42 1    
    79   40  106 1    
    80   41  107 1    
    81   41  108 1    
    82   41  109 1    
    83   42   43 2    
    84   42   44 am   BACKBONE|DICT|INTERRES
    85   44   45 1    
    86   44  110 1    
    87   45   46 1    
    88   45   47 1    
    89   45  111 1    
    90   46  112 1    
    91   46  113 1    
    92   46  114 1    
    93   47   48 2    
    94   47   49 am   BACKBONE|DICT|INTERRES
    95   49   50 1    
    96   49  115 1    
    97   50   51 1    
    98   50   52 1    
    99   50  116 1    
   100   51  117 1    
   101   51  118 1    
   102   51  119 1    
   103   52   53 2    
   104   52   54 am   BACKBONE|DICT|INTERRES
   105   54   55 1    
   106   54  120 1    
   107   55   56 1    
   108   55   57 1    
   109   55  121 1    
   110   56  122 1    
   111   56  123 1    
   112   56  124 1    
   113   57   58 2    
   114   57   59 am   BACKBONE|DICT|INTERRES
   115   59   60 1    
   116   59  125 1    
   117   60   61 1    
   118   60   62 1    
   119   60  126 1    
   120   61  127 1    
   121   61  128 1    
   122   61  129 1    
   123   62   63 2    
   124   62   64 am   BACKBONE|DICT|INTERRES
   125   64   65 1    
   126   64  130 1    
   127   65   66 1    
   128   65   69 1    
   129   65  131 1    
   130   66   67 am   BACKBONE|DICT|INTERRES
   131   66   68 2    
   132   67  132 1    
   133   67  133 1    
   134   69   70 1    
   135   69  134 1    
   136   69  135 1    
   137   70   71 1    
   138   71  136 1    
   139   71  137 1    
@<TRIPOS>SUBSTRUCTURE
     1 UNK         1 GROUP             0       ****    0 ROOT    
