@<TRIPOS>MOLECULE
3R137
137   139    1
SMALL
USER_CHARGES


@<TRIPOS>ATOM
      1 CA         30.1262   -5.1012   -7.5821 C.3       0 UNK        -0.2020 
      2 C          29.8229   -5.4707   -6.1377 C.2       0 UNK         0.4855 
      3 O          29.8968   -6.6464   -5.7798 O.2       0 UNK        -0.5197 
      4 N          29.4708   -4.4832   -5.3097 N.am      1 UNK        -0.4892 
      5 CA         29.0280   -4.6653   -3.9270 C.3       1 UNK         0.0835 
      6 C6         30.2225   -4.6605   -2.9366 C.3       12 UNK        -0.0855 
      7 S7         29.7392   -5.0781   -1.2173 S.3       12 UNK        -0.2931 
      8 C8         30.8079   -4.0384   -0.1596 C.3       12 UNK         0.0378 
      9 C9         30.9638   -2.6066   -0.6562 C.ar      12 UNK        -0.0802 
     10 C10        32.1887   -2.1985   -1.1921 C.ar      12 UNK        -0.0944 
     11 C11        32.3453   -0.9109   -1.7085 C.ar      12 UNK        -0.0787 
     12 C12        31.2856   -0.0073   -1.6290 C.ar      12 UNK        -0.0862 
     13 C13        30.0472   -0.4055   -1.1161 C.ar      12 UNK        -0.0733 
     14 C14        29.8922   -1.7060   -0.6206 C.ar      12 UNK        -0.0832 
     15 C15        28.8751    0.5674   -1.1445 C.3       12 UNK         0.0240 
     16 S16        27.8767    0.4043   -2.6648 S.3       12 UNK        -0.2522 
     17 C17        29.1432    0.6033   -3.9724 C.3       12 UNK        -0.0967 
     18 CA         28.5874    0.9086   -5.3820 C.3       5 UNK         0.0660 
     19 N          27.6785   -0.1398   -5.8475 N.am      5 UNK        -0.4015 
     20 C          27.2105   -0.2747   -7.0943 C.2       4 UNK         0.4946 
     21 O          27.5536    0.4441   -8.0340 O.2       4 UNK        -0.5353 
     22 CA         26.1138   -1.3310   -7.3167 C.3       4 UNK         0.0277 
     23 CB         26.7273   -2.6961   -7.6608 C.3       4 UNK        -0.1981 
     24 N          25.2095   -1.4699   -6.1694 N.am      4 UNK        -0.4209 
     25 C          24.4598   -0.4888   -5.6475 C.2       3 UNK         0.4942 
     26 O          24.4206    0.6495   -6.1126 O.2       3 UNK        -0.5208 
     27 CA         23.6796   -0.7884   -4.3562 C.3       3 UNK         0.0250 
     28 CB         22.3765   -1.5591   -4.6451 C.3       3 UNK        -0.1990 
     29 N          24.5014   -1.4329   -3.3211 N.am      3 UNK        -0.4232 
     30 C          25.0279   -2.6648   -3.3304 C.2       2 UNK         0.4993 
     31 O          24.7912   -3.5131   -4.1951 O.2       2 UNK        -0.5286 
     32 CA         26.0142   -2.9872   -2.1966 C.3       2 UNK         0.0209 
     33 CB         25.2872   -3.6562   -1.0196 C.3       2 UNK        -0.1931 
     34 N          27.1076   -3.8545   -2.6402 N.am      2 UNK        -0.4546 
     35 C          27.9749   -3.5826   -3.6260 C.2       1 UNK         0.5154 
     36 O          27.9606   -2.5412   -4.2876 O.2       1 UNK        -0.5181 
     37 C          28.0138    2.3413   -5.4670 C.2       5 UNK         0.5014 
     38 O          28.7994    3.2892   -5.4351 O.2       5 UNK        -0.5248 
     39 N          26.6868    2.4895   -5.5805 N.am      6 UNK        -0.4434 
     40 CA         26.0118    3.7706   -5.7848 C.3       6 UNK         0.0363 
     41 CB         24.8285    3.8886   -4.8093 C.3       6 UNK        -0.1936 
     42 C          25.5346    3.9074   -7.2374 C.2       6 UNK         0.5081 
     43 O          25.7369    4.9598   -7.8423 O.2       6 UNK        -0.5248 
     44 N          24.9020    2.8518   -7.7682 N.am      7 UNK        -0.4718 
     45 CA         24.2711    2.8350   -9.0889 C.3       7 UNK         0.0273 
     46 CB         23.3289    1.6237   -9.1840 C.3       7 UNK        -0.1935 
     47 C          25.2697    2.8328  -10.2564 C.2       7 UNK         0.5018 
     48 O          25.0377    3.5350  -11.2415 O.2       7 UNK        -0.5186 
     49 N          26.3413    2.0389  -10.1367 N.am      8 UNK        -0.4240 
     50 CA         27.3581    1.8507  -11.1768 C.3       8 UNK         0.0235 
     51 CB         27.3873    0.3602  -11.5618 C.3       8 UNK        -0.2000 
     52 C          28.7559    2.3100  -10.7312 C.2       8 UNK         0.4941 
     53 O          29.6595    2.3448  -11.5673 O.2       8 UNK        -0.5273 
     54 N          28.9208    2.6146   -9.4340 N.am      9 UNK        -0.4262 
     55 CA         30.1888    2.8502   -8.7307 C.3       9 UNK         0.0264 
     56 CB         30.8914    4.1246   -9.2463 C.3       9 UNK        -0.1955 
     57 C          31.1013    1.6055   -8.7359 C.2       9 UNK         0.5031 
     58 O          32.3254    1.7433   -8.7840 O.2       9 UNK        -0.5390 
     59 N          30.4895    0.4134   -8.7087 N.am      10 UNK        -0.4204 
     60 CA         31.1699   -0.8702   -8.8448 C.3       10 UNK         0.0237 
     61 CB         30.3650   -1.7580   -9.8083 C.3       10 UNK        -0.1985 
     62 C          31.3199   -1.5505   -7.4797 C.2       10 UNK         0.4970 
     63 O          30.3132   -1.8389   -6.8298 O.2       10 UNK        -0.4914 
     64 N          32.5679   -1.8479   -7.1119 N.am      11 UNK        -0.4285 
     65 CA         32.9664   -2.6692   -5.9650 C.3       11 UNK         0.1007 
     66 C          34.4512   -3.1053   -6.0882 C.2       11 UNK         0.5703 
     67 N          34.9127   -4.0041   -5.2289 N.am      11 UNK        -0.7361 
     68 O          35.1879   -2.6472   -6.9615 O.2       11 UNK        -0.4986 
     69 C69        32.6129   -2.0482   -4.5863 C.3       12 UNK        -0.0947 
     70 S70        33.3778   -0.4252   -4.2353 S.3       12 UNK        -0.2240 
     71 C71        33.6294   -0.5224   -2.4282 C.3       12 UNK         0.0194 
     72 H72        29.7859   -5.8892   -8.2534 H         1 UNK         0.0906 
     73 H73        29.6223   -4.1804   -7.8731 H         1 UNK         0.0906 
     74 H74        31.1981   -4.9718   -7.7258 H         1 UNK         0.0906 
     75 H75        29.4068   -3.5232   -5.6413 H         1 UNK         0.3140 
     76 H76        28.5185   -5.6292   -3.8542 H         1 UNK         0.1085 
     77 H77        30.7205   -3.6944   -2.9825 H         1 UNK         0.0836 
     78 H78        30.9670   -5.3926   -3.2527 H         1 UNK         0.0836 
     79 H79        31.7826   -4.5218   -0.0768 H         1 UNK         0.0731 
     80 H80        30.3945   -4.0239    0.8498 H         1 UNK         0.0731 
     81 H81        33.0084   -2.9014   -1.2533 H         1 UNK         0.1312 
     82 H82        31.4110    0.9895   -2.0279 H         1 UNK         0.1406 
     83 H83        28.9340   -2.0271   -0.2351 H         1 UNK         0.1631 
     84 H84        29.2344    1.5943   -1.0620 H         1 UNK         0.0717 
     85 H85        28.2320    0.3997   -0.2794 H         1 UNK         0.0717 
     86 H86        29.8452    1.3842   -3.6767 H         1 UNK         0.0934 
     87 H87        29.7244   -0.3196   -4.0161 H         1 UNK         0.0934 
     88 H88        29.4401    0.8912   -6.0627 H         1 UNK         0.0739 
     89 H89        27.4472   -0.8533   -5.1615 H         1 UNK         0.3093 
     90 H90        25.5129   -1.0035   -8.1670 H         1 UNK         0.0818 
     91 H91        25.9559   -3.4445   -7.8423 H         1 UNK         0.0819 
     92 H92        27.3327   -2.6334   -8.5644 H         1 UNK         0.0819 
     93 H93        27.3697   -3.0641   -6.8611 H         1 UNK         0.0819 
     94 H94        25.1956   -2.3667   -5.6896 H         1 UNK         0.3041 
     95 H95        23.3936    0.1782   -3.9378 H         1 UNK         0.0784 
     96 H96        21.7343   -0.9905   -5.3189 H         1 UNK         0.0793 
     97 H97        22.5613   -2.5240   -5.1177 H         1 UNK         0.0793 
     98 H98        21.8105   -1.7366   -3.7307 H         1 UNK         0.0793 
     99 H99        24.7763   -0.8176   -2.5672 H         1 UNK         0.3024 
    100 H100       26.4647   -2.0567   -1.8470 H         1 UNK         0.1171 
    101 H101       25.9669   -3.8451   -0.1882 H         1 UNK         0.0786 
    102 H102       24.4848   -3.0208   -0.6421 H         1 UNK         0.0786 
    103 H103       24.8397   -4.6073   -1.3116 H         1 UNK         0.0786 
    104 H104       27.2102   -4.7299   -2.1474 H         1 UNK         0.2977 
    105 H105       26.1007    1.6632   -5.6217 H         1 UNK         0.3127 
    106 H106       26.6921    4.6003   -5.5808 H         1 UNK         0.0770 
    107 H107       24.0932    3.0972   -4.9582 H         1 UNK         0.0814 
    108 H108       24.3126    4.8410   -4.9374 H         1 UNK         0.0814 
    109 H109       25.1659    3.8395   -3.7739 H         1 UNK         0.0814 
    110 H110       24.7440    2.0319   -7.1836 H         1 UNK         0.2983 
    111 H111       23.6656    3.7397   -9.1803 H         1 UNK         0.0947 
    112 H112       22.8215    1.5970  -10.1493 H         1 UNK         0.0806 
    113 H113       22.5583    1.6603   -8.4137 H         1 UNK         0.0806 
    114 H114       23.8672    0.6821   -9.0710 H         1 UNK         0.0806 
    115 H115       26.4631    1.4906   -9.2902 H         1 UNK         0.3000 
    116 H116       27.1097    2.4280  -12.0697 H         1 UNK         0.0850 
    117 H117       28.1217    0.1703  -12.3458 H         1 UNK         0.0810 
    118 H118       26.4194    0.0307  -11.9397 H         1 UNK         0.0810 
    119 H119       27.6472   -0.2718  -10.7118 H         1 UNK         0.0810 
    120 H120       28.1121    2.5078   -8.8374 H         1 UNK         0.3040 
    121 H121       29.9338    3.0266   -7.6884 H         1 UNK         0.0766 
    122 H122       30.2178    4.9814   -9.2334 H         1 UNK         0.0812 
    123 H123       31.2619    4.0026  -10.2644 H         1 UNK         0.0812 
    124 H124       31.7475    4.3773   -8.6196 H         1 UNK         0.0812 
    125 H125       29.4806    0.3817   -8.5918 H         1 UNK         0.3205 
    126 H126       32.1597   -0.7259   -9.2836 H         1 UNK         0.0754 
    127 H127       30.8347   -2.7353   -9.9271 H         1 UNK         0.0769 
    128 H128       30.2994   -1.3061  -10.7984 H         1 UNK         0.0769 
    129 H129       29.3492   -1.9233   -9.4512 H         1 UNK         0.0769 
    130 H130       33.3456   -1.5799   -7.7013 H         1 UNK         0.2981 
    131 H131       32.3967   -3.5950   -6.0541 H         1 UNK         0.0541 
    132 H132       34.3237   -4.3963   -4.5119 H         1 UNK         0.3459 
    133 H133       35.8745   -4.2969   -5.3007 H         1 UNK         0.3459 
    134 H134       31.5328   -1.9298   -4.4959 H         1 UNK         0.0612 
    135 H135       32.8905   -2.7498   -3.8003 H         1 UNK         0.0612 
    136 H136       33.9784    0.4441   -2.0626 H         1 UNK         0.0624 
    137 H137       34.4244   -1.2396   -2.2181 H         1 UNK         0.0624 
@<TRIPOS>BOND
     1    1    2 1    
     2    1   72 1    
     3    1   73 1    
     4    1   74 1    
     5    2    3 2    
     6    2    4 am   BACKBONE|DICT|INTERRES
     7    4    5 1    
     8    4   75 1    
     9    5    6 1    
    10    5   35 1    
    11    5   76 1    
    12    6    7 1    
    13    6   77 1    
    14    6   78 1    
    15    7    8 1    
    16    8    9 1    
    17    8   79 1    
    18    8   80 1    
    19    9   10 ar   
    20    9   14 ar   
    21   10   11 ar   
    22   10   81 1    
    23   11   12 ar   
    24   11   71 1    
    25   12   13 ar   
    26   12   82 1    
    27   13   14 ar   
    28   13   15 1    
    29   14   83 1    
    30   15   16 1    
    31   15   84 1    
    32   15   85 1    
    33   16   17 1    
    34   17   18 1    
    35   17   86 1    
    36   17   87 1    
    37   18   19 1    
    38   18   37 1    
    39   18   88 1    
    40   19   20 am   BACKBONE|DICT|INTERRES
    41   19   89 1    
    42   20   21 2    
    43   20   22 1    
    44   22   23 1    
    45   22   24 1    
    46   22   90 1    
    47   23   91 1    
    48   23   92 1    
    49   23   93 1    
    50   24   25 am   BACKBONE|DICT|INTERRES
    51   24   94 1    
    52   25   26 2    
    53   25   27 1    
    54   27   28 1    
    55   27   29 1    
    56   27   95 1    
    57   28   96 1    
    58   28   97 1    
    59   28   98 1    
    60   29   30 am   BACKBONE|DICT|INTERRES
    61   29   99 1    
    62   30   31 2    
    63   30   32 1    
    64   32   33 1    
    65   32   34 1    
    66   32  100 1    
    67   33  101 1    
    68   33  102 1    
    69   33  103 1    
    70   34   35 am   BACKBONE|DICT|INTERRES
    71   34  104 1    
    72   35   36 2    
    73   37   38 2    
    74   37   39 am   BACKBONE|DICT|INTERRES
    75   39   40 1    
    76   39  105 1    
    77   40   41 1    
    78   40   42 1    
    79   40  106 1    
    80   41  107 1    
    81   41  108 1    
    82   41  109 1    
    83   42   43 2    
    84   42   44 am   BACKBONE|DICT|INTERRES
    85   44   45 1    
    86   44  110 1    
    87   45   46 1    
    88   45   47 1    
    89   45  111 1    
    90   46  112 1    
    91   46  113 1    
    92   46  114 1    
    93   47   48 2    
    94   47   49 am   BACKBONE|DICT|INTERRES
    95   49   50 1    
    96   49  115 1    
    97   50   51 1    
    98   50   52 1    
    99   50  116 1    
   100   51  117 1    
   101   51  118 1    
   102   51  119 1    
   103   52   53 2    
   104   52   54 am   BACKBONE|DICT|INTERRES
   105   54   55 1    
   106   54  120 1    
   107   55   56 1    
   108   55   57 1    
   109   55  121 1    
   110   56  122 1    
   111   56  123 1    
   112   56  124 1    
   113   57   58 2    
   114   57   59 am   BACKBONE|DICT|INTERRES
   115   59   60 1    
   116   59  125 1    
   117   60   61 1    
   118   60   62 1    
   119   60  126 1    
   120   61  127 1    
   121   61  128 1    
   122   61  129 1    
   123   62   63 2    
   124   62   64 am   BACKBONE|DICT|INTERRES
   125   64   65 1    
   126   64  130 1    
   127   65   66 1    
   128   65   69 1    
   129   65  131 1    
   130   66   67 am   BACKBONE|DICT|INTERRES
   131   66   68 2    
   132   67  132 1    
   133   67  133 1    
   134   69   70 1    
   135   69  134 1    
   136   69  135 1    
   137   70   71 1    
   138   71  136 1    
   139   71  137 1    
@<TRIPOS>SUBSTRUCTURE
     1 UNK         1 GROUP             0       ****    0 ROOT    
