@<TRIPOS>MOLECULE
3R137
137   139    1
SMALL
USER_CHARGES


@<TRIPOS>ATOM
      1 CA         28.1960   -3.0113    1.3882 C.3       0 UNK        -0.2020 
      2 C          27.1636   -4.1114    1.1653 C.2       0 UNK         0.4855 
      3 O          26.6496   -4.6588    2.1387 O.2       0 UNK        -0.5197 
      4 N          26.8155   -4.4720   -0.0763 N.am      1 UNK        -0.4892 
      5 CA         27.2889   -3.9175   -1.3511 C.3       1 UNK         0.0835 
      6 C6         28.1963   -4.9189   -2.1180 C.3       12 UNK        -0.0855 
      7 S7         29.8096   -5.1645   -1.2986 S.3       12 UNK        -0.2931 
      8 C8         30.9939   -4.5644   -2.5613 C.3       12 UNK         0.0378 
      9 C9         30.9335   -3.0681   -2.8825 C.ar      12 UNK        -0.0802 
     10 C10        31.4573   -2.6174   -4.0986 C.ar      12 UNK        -0.0944 
     11 C11        31.4473   -1.2567   -4.4257 C.ar      12 UNK        -0.0787 
     12 C12        30.8689   -0.3406   -3.5438 C.ar      12 UNK        -0.0862 
     13 C13        30.3294   -0.7746   -2.3308 C.ar      12 UNK        -0.0733 
     14 C14        30.4014   -2.1287   -1.9922 C.ar      12 UNK        -0.0832 
     15 C15        29.6618    0.2041   -1.3772 C.3       12 UNK         0.0240 
     16 S16        27.8625   -0.0743   -1.3310 S.3       12 UNK        -0.2522 
     17 C17        27.2060    1.2892   -2.3468 C.3       12 UNK        -0.0967 
     18 CA         27.5447    1.2222   -3.8593 C.3       5 UNK         0.0660 
     19 N          27.2992   -0.0895   -4.4637 N.am      5 UNK        -0.4015 
     20 C          27.7593   -0.4678   -5.6663 C.2       4 UNK         0.4946 
     21 O          28.4725    0.2343   -6.3830 O.2       4 UNK        -0.5353 
     22 CA         27.3174   -1.8473   -6.1798 C.3       4 UNK         0.0277 
     23 CB         28.2558   -2.9364   -5.6453 C.3       4 UNK        -0.1981 
     24 N          25.9300   -2.1593   -5.8250 N.am      4 UNK        -0.4209 
     25 C          24.8736   -1.5049   -6.3329 C.2       3 UNK         0.4942 
     26 O          24.9672   -0.6136   -7.1744 O.2       3 UNK        -0.5208 
     27 CA         23.4801   -1.8550   -5.7861 C.3       3 UNK         0.0250 
     28 CB         22.8341   -2.9618   -6.6338 C.3       3 UNK        -0.1990 
     29 N          23.4752   -2.2541   -4.3785 N.am      3 UNK        -0.4232 
     30 C          23.9445   -1.5273   -3.3548 C.2       2 UNK         0.4993 
     31 O          24.4434   -0.4067   -3.4793 O.2       2 UNK        -0.5286 
     32 CA         23.8867   -2.1789   -1.9614 C.3       2 UNK         0.0209 
     33 CB         22.8382   -3.3088   -1.8461 C.3       2 UNK        -0.1931 
     34 N          25.1945   -2.6686   -1.5070 N.am      2 UNK        -0.4546 
     35 C          26.0544   -3.4703   -2.1586 C.2       1 UNK         0.5154 
     36 O          25.8869   -3.8691   -3.3135 O.2       1 UNK        -0.5181 
     37 C          26.7768    2.3217   -4.6140 C.2       5 UNK         0.5014 
     38 O          27.3298    3.3974   -4.8457 O.2       5 UNK        -0.5248 
     39 N          25.5204    2.0251   -4.9815 N.am      6 UNK        -0.4434 
     40 CA         24.6481    2.9102   -5.7545 C.3       6 UNK         0.0363 
     41 CB         23.2216    2.3386   -5.7781 C.3       6 UNK        -0.1936 
     42 C          25.1641    3.1537   -7.1829 C.2       6 UNK         0.5081 
     43 O          25.1546    4.2973   -7.6397 O.2       6 UNK        -0.5248 
     44 N          25.6074    2.0839   -7.8585 N.am      7 UNK        -0.4718 
     45 CA         26.1789    2.1397   -9.2047 C.3       7 UNK         0.0273 
     46 CB         26.2320    0.7255   -9.8059 C.3       7 UNK        -0.1935 
     47 C          27.5745    2.7776   -9.2370 C.2       7 UNK         0.5018 
     48 O          27.8753    3.5034  -10.1855 O.2       7 UNK        -0.5186 
     49 N          28.4137    2.4600   -8.2379 N.am      8 UNK        -0.4240 
     50 CA         29.8213    2.8482   -8.0507 C.3       8 UNK         0.0235 
     51 CB         29.9837    4.3758   -7.9400 C.3       8 UNK        -0.2000 
     52 C          30.7847    2.2542   -9.0953 C.2       8 UNK         0.4941 
     53 O          31.8507    1.7637   -8.7228 O.2       8 UNK        -0.5273 
     54 N          30.3782    2.2517  -10.3726 N.am      9 UNK        -0.4262 
     55 CA         31.0891    1.6956  -11.5298 C.3       9 UNK         0.0264 
     56 CB         30.2629    1.9627  -12.7980 C.3       9 UNK        -0.1955 
     57 C          31.4286    0.1976  -11.4173 C.2       9 UNK         0.5031 
     58 O          32.3552   -0.2578  -12.0883 O.2       9 UNK        -0.5390 
     59 N          30.7219   -0.5290  -10.5390 N.am      10 UNK        -0.4204 
     60 CA         31.0144   -1.9066  -10.1318 C.3       10 UNK         0.0237 
     61 CB         29.9361   -2.3680   -9.1363 C.3       10 UNK        -0.1985 
     62 C          32.4219   -2.0930   -9.5271 C.2       10 UNK         0.4970 
     63 O          32.9774   -3.1864   -9.6352 O.2       10 UNK        -0.4914 
     64 N          32.9737   -1.0293   -8.9277 N.am      11 UNK        -0.4285 
     65 CA         34.3554   -0.9574   -8.4335 C.3       11 UNK         0.1007 
     66 C          35.3813   -0.5083   -9.5178 C.2       11 UNK         0.5703 
     67 N          34.9910   -0.2422  -10.7596 N.am      11 UNK        -0.7361 
     68 O          36.5734   -0.4200   -9.2325 O.2       11 UNK        -0.4986 
     69 C69        34.4341   -0.0794   -7.1544 C.3       12 UNK        -0.0947 
     70 S70        33.8832   -0.9677   -5.6630 S.3       12 UNK        -0.2240 
     71 C71        32.0744   -0.7781   -5.7254 C.3       12 UNK         0.0194 
     72 H72        28.3478   -2.8423    2.4541 H         1 UNK         0.0906 
     73 H73        29.1575   -3.2918    0.9621 H         1 UNK         0.0906 
     74 H74        27.8690   -2.0690    0.9513 H         1 UNK         0.0906 
     75 H75        26.1115   -5.1910   -0.1758 H         1 UNK         0.3140 
     76 H76        27.8548   -3.0034   -1.1918 H         1 UNK         0.1085 
     77 H77        28.3799   -4.5858   -3.1383 H         1 UNK         0.0836 
     78 H78        27.7020   -5.8876   -2.2102 H         1 UNK         0.0836 
     79 H79        30.8408   -5.1426   -3.4740 H         1 UNK         0.0731 
     80 H80        32.0029   -4.7962   -2.2181 H         1 UNK         0.0731 
     81 H81        31.8978   -3.3244   -4.7886 H         1 UNK         0.1312 
     82 H82        30.8446    0.7090   -3.8013 H         1 UNK         0.1406 
     83 H83        30.0264   -2.4435   -1.0314 H         1 UNK         0.1631 
     84 H84        29.8803    1.2374   -1.6509 H         1 UNK         0.0717 
     85 H85        30.0665    0.0605   -0.3743 H         1 UNK         0.0717 
     86 H86        26.1242    1.2895   -2.1978 H         1 UNK         0.0934 
     87 H87        27.5604    2.2314   -1.9240 H         1 UNK         0.0934 
     88 H88        28.6074    1.4400   -3.9738 H         1 UNK         0.0739 
     89 H89        26.6671   -0.6967   -3.9609 H         1 UNK         0.3093 
     90 H90        27.3888   -1.8399   -7.2696 H         1 UNK         0.0818 
     91 H91        28.3375   -2.8856   -4.5605 H         1 UNK         0.0819 
     92 H92        27.9165   -3.9357   -5.9181 H         1 UNK         0.0819 
     93 H93        29.2610   -2.8113   -6.0483 H         1 UNK         0.0819 
     94 H94        25.7791   -2.8615   -5.1065 H         1 UNK         0.3041 
     95 H95        22.8626   -0.9590   -5.8685 H         1 UNK         0.0784 
     96 H96        22.8048   -2.6789   -7.6872 H         1 UNK         0.0793 
     97 H97        23.3870   -3.8995   -6.5632 H         1 UNK         0.0793 
     98 H98        21.8065   -3.1522   -6.3235 H         1 UNK         0.0793 
     99 H99        23.1244   -3.1785   -4.1738 H         1 UNK         0.3024 
    100 H100       23.5914   -1.3830   -1.2752 H         1 UNK         0.1171 
    101 H101       22.7285   -3.6307   -0.8104 H         1 UNK         0.0786 
    102 H102       21.8546   -2.9730   -2.1784 H         1 UNK         0.0786 
    103 H103       23.1083   -4.1884   -2.4317 H         1 UNK         0.0786 
    104 H104       25.4513   -2.3851   -0.5718 H         1 UNK         0.2977 
    105 H105       25.1347    1.1304   -4.6958 H         1 UNK         0.3127 
    106 H106       24.6187    3.8743   -5.2424 H         1 UNK         0.0770 
    107 H107       23.1773    1.3851   -6.3040 H         1 UNK         0.0814 
    108 H108       22.5391    3.0209   -6.2863 H         1 UNK         0.0814 
    109 H109       22.8367    2.1847   -4.7698 H         1 UNK         0.0814 
    110 H110       25.5094    1.1594   -7.4434 H         1 UNK         0.2983 
    111 H111       25.5220    2.7502   -9.8284 H         1 UNK         0.0947 
    112 H112       26.6430    0.7432  -10.8162 H         1 UNK         0.0806 
    113 H113       25.2363    0.2860   -9.8693 H         1 UNK         0.0806 
    114 H114       26.8534    0.0555   -9.2099 H         1 UNK         0.0806 
    115 H115       28.0854    1.7906   -7.5466 H         1 UNK         0.3000 
    116 H116       30.1100    2.4206   -7.0888 H         1 UNK         0.0850 
    117 H117       31.0131    4.6389   -7.6932 H         1 UNK         0.0810 
    118 H118       29.3470    4.7825   -7.1540 H         1 UNK         0.0810 
    119 H119       29.7344    4.8850   -8.8712 H         1 UNK         0.0810 
    120 H120       29.4859    2.7054  -10.5591 H         1 UNK         0.3040 
    121 H121       32.0361    2.2321  -11.6149 H         1 UNK         0.0766 
    122 H122       30.7745    1.5872  -13.6855 H         1 UNK         0.0812 
    123 H123       30.0998    3.0302  -12.9480 H         1 UNK         0.0812 
    124 H124       29.2871    1.4774  -12.7530 H         1 UNK         0.0812 
    125 H125       29.9819   -0.0592  -10.0393 H         1 UNK         0.3205 
    126 H126       30.9570   -2.5344  -11.0233 H         1 UNK         0.0754 
    127 H127       29.9020   -1.7272   -8.2542 H         1 UNK         0.0769 
    128 H128       30.1263   -3.3863   -8.7940 H         1 UNK         0.0769 
    129 H129       28.9458   -2.3615   -9.5923 H         1 UNK         0.0769 
    130 H130       32.4624   -0.1527   -8.9014 H         1 UNK         0.2981 
    131 H131       34.6766   -1.9641   -8.1599 H         1 UNK         0.0541 
    132 H132       34.0227   -0.3321  -11.0474 H         1 UNK         0.3459 
    133 H133       35.6839    0.0362  -11.4356 H         1 UNK         0.3459 
    134 H134       33.8687    0.8462   -7.2681 H         1 UNK         0.0612 
    135 H135       35.4615    0.2270   -6.9506 H         1 UNK         0.0612 
    136 H136       31.6704   -1.3625   -6.5513 H         1 UNK         0.0624 
    137 H137       31.8195    0.2646   -5.9227 H         1 UNK         0.0624 
@<TRIPOS>BOND
     1    1    2 1    
     2    1   72 1    
     3    1   73 1    
     4    1   74 1    
     5    2    3 2    
     6    2    4 am   BACKBONE|DICT|INTERRES
     7    4    5 1    
     8    4   75 1    
     9    5    6 1    
    10    5   35 1    
    11    5   76 1    
    12    6    7 1    
    13    6   77 1    
    14    6   78 1    
    15    7    8 1    
    16    8    9 1    
    17    8   79 1    
    18    8   80 1    
    19    9   10 ar   
    20    9   14 ar   
    21   10   11 ar   
    22   10   81 1    
    23   11   12 ar   
    24   11   71 1    
    25   12   13 ar   
    26   12   82 1    
    27   13   14 ar   
    28   13   15 1    
    29   14   83 1    
    30   15   16 1    
    31   15   84 1    
    32   15   85 1    
    33   16   17 1    
    34   17   18 1    
    35   17   86 1    
    36   17   87 1    
    37   18   19 1    
    38   18   37 1    
    39   18   88 1    
    40   19   20 am   BACKBONE|DICT|INTERRES
    41   19   89 1    
    42   20   21 2    
    43   20   22 1    
    44   22   23 1    
    45   22   24 1    
    46   22   90 1    
    47   23   91 1    
    48   23   92 1    
    49   23   93 1    
    50   24   25 am   BACKBONE|DICT|INTERRES
    51   24   94 1    
    52   25   26 2    
    53   25   27 1    
    54   27   28 1    
    55   27   29 1    
    56   27   95 1    
    57   28   96 1    
    58   28   97 1    
    59   28   98 1    
    60   29   30 am   BACKBONE|DICT|INTERRES
    61   29   99 1    
    62   30   31 2    
    63   30   32 1    
    64   32   33 1    
    65   32   34 1    
    66   32  100 1    
    67   33  101 1    
    68   33  102 1    
    69   33  103 1    
    70   34   35 am   BACKBONE|DICT|INTERRES
    71   34  104 1    
    72   35   36 2    
    73   37   38 2    
    74   37   39 am   BACKBONE|DICT|INTERRES
    75   39   40 1    
    76   39  105 1    
    77   40   41 1    
    78   40   42 1    
    79   40  106 1    
    80   41  107 1    
    81   41  108 1    
    82   41  109 1    
    83   42   43 2    
    84   42   44 am   BACKBONE|DICT|INTERRES
    85   44   45 1    
    86   44  110 1    
    87   45   46 1    
    88   45   47 1    
    89   45  111 1    
    90   46  112 1    
    91   46  113 1    
    92   46  114 1    
    93   47   48 2    
    94   47   49 am   BACKBONE|DICT|INTERRES
    95   49   50 1    
    96   49  115 1    
    97   50   51 1    
    98   50   52 1    
    99   50  116 1    
   100   51  117 1    
   101   51  118 1    
   102   51  119 1    
   103   52   53 2    
   104   52   54 am   BACKBONE|DICT|INTERRES
   105   54   55 1    
   106   54  120 1    
   107   55   56 1    
   108   55   57 1    
   109   55  121 1    
   110   56  122 1    
   111   56  123 1    
   112   56  124 1    
   113   57   58 2    
   114   57   59 am   BACKBONE|DICT|INTERRES
   115   59   60 1    
   116   59  125 1    
   117   60   61 1    
   118   60   62 1    
   119   60  126 1    
   120   61  127 1    
   121   61  128 1    
   122   61  129 1    
   123   62   63 2    
   124   62   64 am   BACKBONE|DICT|INTERRES
   125   64   65 1    
   126   64  130 1    
   127   65   66 1    
   128   65   69 1    
   129   65  131 1    
   130   66   67 am   BACKBONE|DICT|INTERRES
   131   66   68 2    
   132   67  132 1    
   133   67  133 1    
   134   69   70 1    
   135   69  134 1    
   136   69  135 1    
   137   70   71 1    
   138   71  136 1    
   139   71  137 1    
@<TRIPOS>SUBSTRUCTURE
     1 UNK         1 GROUP             0       ****    0 ROOT    
