@<TRIPOS>MOLECULE
3R137
137   139    1
SMALL
USER_CHARGES


@<TRIPOS>ATOM
      1 CA         29.1601    1.0825    1.9629 C.3       0 UNK        -0.2020 
      2 C          28.8066   -0.4018    2.0066 C.2       0 UNK         0.4855 
      3 O          28.4712   -0.9106    3.0740 O.2       0 UNK        -0.5197 
      4 N          28.8664   -1.1409    0.8893 N.am      1 UNK        -0.4892 
      5 CA         29.1981   -0.6872   -0.4699 C.3       1 UNK         0.0835 
      6 C6         29.6227   -1.8753   -1.3676 C.3       12 UNK        -0.0855 
      7 S7         28.3552   -3.1857   -1.5157 S.3       12 UNK        -0.2931 
      8 C8         29.3711   -4.6010   -2.0437 C.3       12 UNK         0.0378 
      9 C9         29.7404   -4.5063   -3.5168 C.ar      12 UNK        -0.0802 
     10 C10        30.9241   -3.8762   -3.9138 C.ar      12 UNK        -0.0944 
     11 C11        31.2645   -3.7783   -5.2698 C.ar      12 UNK        -0.0787 
     12 C12        30.4067   -4.3384   -6.2252 C.ar      12 UNK        -0.0862 
     13 C13        29.2322   -4.9959   -5.8398 C.ar      12 UNK        -0.0733 
     14 C14        28.9028   -5.0684   -4.4835 C.ar      12 UNK        -0.0832 
     15 C15        28.3615   -5.6989   -6.8755 C.3       12 UNK         0.0240 
     16 S16        26.6343   -5.1044   -6.8805 S.3       12 UNK        -0.2522 
     17 C17        26.4326   -4.4770   -8.5890 C.3       12 UNK        -0.0967 
     18 CA         26.2139   -2.9478   -8.6840 C.3       5 UNK         0.0660 
     19 N          25.0127   -2.5102   -7.9704 N.am      5 UNK        -0.4015 
     20 C          24.4554   -1.2974   -8.0937 C.2       4 UNK         0.4946 
     21 O          24.8556   -0.4346   -8.8759 O.2       4 UNK        -0.5353 
     22 CA         23.2903   -0.9763   -7.1412 C.3       4 UNK         0.0277 
     23 CB         21.9606   -1.4880   -7.7177 C.3       4 UNK        -0.1981 
     24 N          23.4874   -1.5147   -5.7888 N.am      4 UNK        -0.4209 
     25 C          24.4951   -1.1587   -4.9799 C.2       3 UNK         0.4942 
     26 O          25.3607   -0.3411   -5.2970 O.2       3 UNK        -0.5208 
     27 CA         24.5869   -1.8900   -3.6286 C.3       3 UNK         0.0250 
     28 CB         25.3380   -3.2222   -3.7957 C.3       3 UNK        -0.1990 
     29 N          25.2629   -1.0940   -2.5999 N.am      3 UNK        -0.4232 
     30 C          24.8031    0.0601   -2.0947 C.2       2 UNK         0.4993 
     31 O          23.7211    0.5560   -2.4149 O.2       2 UNK        -0.5286 
     32 CA         25.6621    0.7748   -1.0332 C.3       2 UNK         0.0209 
     33 CB         24.8330    1.0956    0.2241 C.3       2 UNK        -0.1931 
     34 N          26.8410    0.0066   -0.6215 N.am      2 UNK        -0.4546 
     35 C          28.0752    0.1512   -1.1229 C.2       1 UNK         0.5154 
     36 O          28.3524    0.9242   -2.0391 O.2       1 UNK        -0.5181 
     37 C          27.4655   -2.1562   -8.2567 C.2       5 UNK         0.5014 
     38 O          28.2871   -1.8264   -9.1102 O.2       5 UNK        -0.5248 
     39 N          27.5703   -1.8356   -6.9590 N.am      6 UNK        -0.4434 
     40 CA         28.6538   -1.0395   -6.3890 C.3       6 UNK         0.0363 
     41 CB         28.6122   -1.1110   -4.8577 C.3       6 UNK        -0.1936 
     42 C          28.6043    0.4174   -6.8598 C.2       6 UNK         0.5081 
     43 O          29.6473    0.9778   -7.1952 O.2       6 UNK        -0.5248 
     44 N          27.3930    0.9871   -6.9157 N.am      7 UNK        -0.4718 
     45 CA         27.1230    2.3135   -7.4696 C.3       7 UNK         0.0273 
     46 CB         25.6614    2.7003   -7.1944 C.3       7 UNK        -0.1935 
     47 C          27.4462    2.3979   -8.9709 C.2       7 UNK         0.5018 
     48 O          28.0636    3.3742   -9.3963 O.2       7 UNK        -0.5186 
     49 N          27.0621    1.3634   -9.7345 N.am      8 UNK        -0.4240 
     50 CA         27.3683    1.2260  -11.1613 C.3       8 UNK         0.0235 
     51 CB         26.5652    0.0580  -11.7557 C.3       8 UNK        -0.2000 
     52 C          28.8719    1.0533  -11.4408 C.2       8 UNK         0.4941 
     53 O          29.3905    1.6895  -12.3589 O.2       8 UNK        -0.5273 
     54 N          29.5465    0.2125  -10.6434 N.am      9 UNK        -0.4262 
     55 CA         30.9887   -0.0396  -10.7265 C.3       9 UNK         0.0264 
     56 CB         31.3230   -1.3182   -9.9385 C.3       9 UNK        -0.1955 
     57 C          31.8573    1.1251  -10.2185 C.2       9 UNK         0.5031 
     58 O          33.0374    1.1765  -10.5684 O.2       9 UNK        -0.5390 
     59 N          31.2766    2.0033   -9.3866 N.am      10 UNK        -0.4204 
     60 CA         31.9269    3.0628   -8.6071 C.3       10 UNK         0.0237 
     61 CB         32.5474    4.1422   -9.5202 C.3       10 UNK        -0.1985 
     62 C          32.9175    2.4669   -7.5882 C.2       10 UNK         0.4970 
     63 O          34.0863    2.8573   -7.5520 O.2       10 UNK        -0.4914 
     64 N          32.4214    1.4971   -6.8084 N.am      11 UNK        -0.4285 
     65 CA         33.1599    0.7502   -5.7811 C.3       11 UNK         0.1007 
     66 C          33.7459    1.6574   -4.6619 C.2       11 UNK         0.5703 
     67 N          34.9325    1.3413   -4.1610 N.am      11 UNK        -0.7361 
     68 O          33.1184    2.6191   -4.2213 O.2       11 UNK        -0.4986 
     69 C69        32.2739   -0.3799   -5.1898 C.3       12 UNK        -0.0947 
     70 S70        33.2403   -1.8278   -4.6528 S.3       12 UNK        -0.2240 
     71 C71        32.5853   -3.1537   -5.7294 C.3       12 UNK         0.0194 
     72 H72        28.4289    1.6423    1.3810 H         1 UNK         0.0906 
     73 H73        29.1675    1.5001    2.9696 H         1 UNK         0.0906 
     74 H74        30.1501    1.2417    1.5375 H         1 UNK         0.0906 
     75 H75        28.6348   -2.1231    0.9519 H         1 UNK         0.3140 
     76 H76        30.0644   -0.0266   -0.4015 H         1 UNK         0.1085 
     77 H77        29.9005   -1.5286   -2.3628 H         1 UNK         0.0836 
     78 H78        30.5305   -2.3186   -0.9554 H         1 UNK         0.0836 
     79 H79        28.8101   -5.5192   -1.8630 H         1 UNK         0.0731 
     80 H80        30.2677   -4.6709   -1.4260 H         1 UNK         0.0731 
     81 H81        31.5813   -3.4696   -3.1585 H         1 UNK         0.1312 
     82 H82        30.6734   -4.2925   -7.2723 H         1 UNK         0.1406 
     83 H83        27.9961   -5.5744   -4.1800 H         1 UNK         0.1631 
     84 H84        28.3535   -6.7665   -6.6517 H         1 UNK         0.0717 
     85 H85        28.8062   -5.6092   -7.8666 H         1 UNK         0.0717 
     86 H86        27.2769   -4.7725   -9.2136 H         1 UNK         0.0934 
     87 H87        25.5724   -4.9884   -9.0240 H         1 UNK         0.0934 
     88 H88        26.0502   -2.7162   -9.7388 H         1 UNK         0.0739 
     89 H89        24.6240   -3.1625   -7.3055 H         1 UNK         0.3093 
     90 H90        23.2293    0.1110   -7.0573 H         1 UNK         0.0818 
     91 H91        21.1163   -1.1827   -7.0993 H         1 UNK         0.0819 
     92 H92        21.7892   -1.0848   -8.7169 H         1 UNK         0.0819 
     93 H93        21.9430   -2.5756   -7.7980 H         1 UNK         0.0819 
     94 H94        22.8136   -2.1940   -5.4644 H         1 UNK         0.3041 
     95 H95        23.5738   -2.0972   -3.2776 H         1 UNK         0.0784 
     96 H96        26.3625   -3.0717   -4.1378 H         1 UNK         0.0793 
     97 H97        25.3813   -3.7735   -2.8561 H         1 UNK         0.0793 
     98 H98        24.8431   -3.8679   -4.5221 H         1 UNK         0.0793 
     99 H99        26.1663   -1.4221   -2.2911 H         1 UNK         0.3024 
    100 H100       25.9804    1.7209   -1.4776 H         1 UNK         0.1171 
    101 H101       25.4265    1.6334    0.9638 H         1 UNK         0.0786 
    102 H102       23.9765    1.7264   -0.0180 H         1 UNK         0.0786 
    103 H103       24.4484    0.1904    0.6957 H         1 UNK         0.0786 
    104 H104       26.7090   -0.6682    0.1194 H         1 UNK         0.2977 
    105 H105       26.8333   -2.1148   -6.3300 H         1 UNK         0.3127 
    106 H106       29.5922   -1.4771   -6.7317 H         1 UNK         0.0770 
    107 H107       28.6749   -2.1386   -4.5076 H         1 UNK         0.0814 
    108 H108       27.7068   -0.6718   -4.4429 H         1 UNK         0.0814 
    109 H109       29.4474   -0.5638   -4.4252 H         1 UNK         0.0814 
    110 H110       26.6000    0.4678   -6.5463 H         1 UNK         0.2983 
    111 H111       27.7690    3.0257   -6.9514 H         1 UNK         0.0947 
    112 H112       24.9632    2.0189   -7.6811 H         1 UNK         0.0806 
    113 H113       25.4480    3.7048   -7.5620 H         1 UNK         0.0806 
    114 H114       25.4444    2.6913   -6.1260 H         1 UNK         0.0806 
    115 H115       26.5013    0.6288   -9.3117 H         1 UNK         0.3000 
    116 H116       27.0451    2.1440  -11.6568 H         1 UNK         0.0850 
    117 H117       26.7510   -0.0388  -12.8262 H         1 UNK         0.0810 
    118 H118       25.4932    0.2069  -11.6243 H         1 UNK         0.0810 
    119 H119       26.8291   -0.8922  -11.2913 H         1 UNK         0.0810 
    120 H120       29.0301   -0.3420   -9.9623 H         1 UNK         0.3040 
    121 H121       31.2450   -0.2068  -11.7748 H         1 UNK         0.0766 
    122 H122       31.0728   -1.2155   -8.8816 H         1 UNK         0.0812 
    123 H123       32.3866   -1.5522  -10.0010 H         1 UNK         0.0812 
    124 H124       30.7793   -2.1787  -10.3289 H         1 UNK         0.0812 
    125 H125       30.3174    1.8121   -9.1220 H         1 UNK         0.3205 
    126 H126       31.1365    3.5402   -8.0255 H         1 UNK         0.0754 
    127 H127       33.3851    3.7562  -10.1015 H         1 UNK         0.0769 
    128 H128       31.8102    4.5401  -10.2177 H         1 UNK         0.0769 
    129 H129       32.9222    4.9795   -8.9305 H         1 UNK         0.0769 
    130 H130       31.4339    1.2699   -6.9045 H         1 UNK         0.2981 
    131 H131       33.9971    0.2914   -6.3111 H         1 UNK         0.0541 
    132 H132       35.3227    1.9095   -3.4259 H         1 UNK         0.3459 
    133 H133       35.4382    0.5360   -4.4958 H         1 UNK         0.3459 
    134 H134       31.6774   -0.0200   -4.3501 H         1 UNK         0.0612 
    135 H135       31.5601   -0.7219   -5.9368 H         1 UNK         0.0612 
    136 H136       32.4926   -2.7684   -6.7463 H         1 UNK         0.0624 
    137 H137       33.3308   -3.9484   -5.7723 H         1 UNK         0.0624 
@<TRIPOS>BOND
     1    1    2 1    
     2    1   72 1    
     3    1   73 1    
     4    1   74 1    
     5    2    3 2    
     6    2    4 am   BACKBONE|DICT|INTERRES
     7    4    5 1    
     8    4   75 1    
     9    5    6 1    
    10    5   35 1    
    11    5   76 1    
    12    6    7 1    
    13    6   77 1    
    14    6   78 1    
    15    7    8 1    
    16    8    9 1    
    17    8   79 1    
    18    8   80 1    
    19    9   10 ar   
    20    9   14 ar   
    21   10   11 ar   
    22   10   81 1    
    23   11   12 ar   
    24   11   71 1    
    25   12   13 ar   
    26   12   82 1    
    27   13   14 ar   
    28   13   15 1    
    29   14   83 1    
    30   15   16 1    
    31   15   84 1    
    32   15   85 1    
    33   16   17 1    
    34   17   18 1    
    35   17   86 1    
    36   17   87 1    
    37   18   19 1    
    38   18   37 1    
    39   18   88 1    
    40   19   20 am   BACKBONE|DICT|INTERRES
    41   19   89 1    
    42   20   21 2    
    43   20   22 1    
    44   22   23 1    
    45   22   24 1    
    46   22   90 1    
    47   23   91 1    
    48   23   92 1    
    49   23   93 1    
    50   24   25 am   BACKBONE|DICT|INTERRES
    51   24   94 1    
    52   25   26 2    
    53   25   27 1    
    54   27   28 1    
    55   27   29 1    
    56   27   95 1    
    57   28   96 1    
    58   28   97 1    
    59   28   98 1    
    60   29   30 am   BACKBONE|DICT|INTERRES
    61   29   99 1    
    62   30   31 2    
    63   30   32 1    
    64   32   33 1    
    65   32   34 1    
    66   32  100 1    
    67   33  101 1    
    68   33  102 1    
    69   33  103 1    
    70   34   35 am   BACKBONE|DICT|INTERRES
    71   34  104 1    
    72   35   36 2    
    73   37   38 2    
    74   37   39 am   BACKBONE|DICT|INTERRES
    75   39   40 1    
    76   39  105 1    
    77   40   41 1    
    78   40   42 1    
    79   40  106 1    
    80   41  107 1    
    81   41  108 1    
    82   41  109 1    
    83   42   43 2    
    84   42   44 am   BACKBONE|DICT|INTERRES
    85   44   45 1    
    86   44  110 1    
    87   45   46 1    
    88   45   47 1    
    89   45  111 1    
    90   46  112 1    
    91   46  113 1    
    92   46  114 1    
    93   47   48 2    
    94   47   49 am   BACKBONE|DICT|INTERRES
    95   49   50 1    
    96   49  115 1    
    97   50   51 1    
    98   50   52 1    
    99   50  116 1    
   100   51  117 1    
   101   51  118 1    
   102   51  119 1    
   103   52   53 2    
   104   52   54 am   BACKBONE|DICT|INTERRES
   105   54   55 1    
   106   54  120 1    
   107   55   56 1    
   108   55   57 1    
   109   55  121 1    
   110   56  122 1    
   111   56  123 1    
   112   56  124 1    
   113   57   58 2    
   114   57   59 am   BACKBONE|DICT|INTERRES
   115   59   60 1    
   116   59  125 1    
   117   60   61 1    
   118   60   62 1    
   119   60  126 1    
   120   61  127 1    
   121   61  128 1    
   122   61  129 1    
   123   62   63 2    
   124   62   64 am   BACKBONE|DICT|INTERRES
   125   64   65 1    
   126   64  130 1    
   127   65   66 1    
   128   65   69 1    
   129   65  131 1    
   130   66   67 am   BACKBONE|DICT|INTERRES
   131   66   68 2    
   132   67  132 1    
   133   67  133 1    
   134   69   70 1    
   135   69  134 1    
   136   69  135 1    
   137   70   71 1    
   138   71  136 1    
   139   71  137 1    
@<TRIPOS>SUBSTRUCTURE
     1 UNK         1 GROUP             0       ****    0 ROOT    
