@<TRIPOS>MOLECULE
3R137
137   139    1
SMALL
USER_CHARGES


@<TRIPOS>ATOM
      1 CA         30.7811    1.5613    1.2042 C.3       0 UNK        -0.2020 
      2 C          30.1224    0.4224    0.4404 C.2       0 UNK         0.4855 
      3 O          30.8161   -0.4731   -0.0403 O.2       0 UNK        -0.5197 
      4 N          28.7913    0.4512    0.3240 N.am      1 UNK        -0.4892 
      5 CA         27.9769   -0.5096   -0.4177 C.3       1 UNK         0.0835 
      6 C6         27.8791   -1.8992    0.2735 C.3       12 UNK        -0.0855 
      7 S7         27.4937   -3.2435   -0.9067 S.3       12 UNK        -0.2931 
      8 C8         29.1426   -3.9236   -1.2790 C.3       12 UNK         0.0378 
      9 C9         29.5554   -3.6511   -2.7182 C.ar      12 UNK        -0.0802 
     10 C10        30.3940   -2.5755   -3.0277 C.ar      12 UNK        -0.0944 
     11 C11        30.8177   -2.3644   -4.3441 C.ar      12 UNK        -0.0787 
     12 C12        30.3965   -3.2340   -5.3541 C.ar      12 UNK        -0.0862 
     13 C13        29.5639   -4.3149   -5.0554 C.ar      12 UNK        -0.0733 
     14 C14        29.1376   -4.5118   -3.7381 C.ar      12 UNK        -0.0832 
     15 C15        29.1670   -5.3045   -6.1391 C.3       12 UNK         0.0240 
     16 S16        27.6028   -4.8440   -6.9395 S.3       12 UNK        -0.2522 
     17 C17        28.1560   -3.8264   -8.3575 C.3       12 UNK        -0.0967 
     18 CA         27.4596   -2.4445   -8.4637 C.3       5 UNK         0.0660 
     19 N          26.0221   -2.5364   -8.1965 N.am      5 UNK        -0.4015 
     20 C          25.1092   -1.6032   -8.4881 C.2       4 UNK         0.4946 
     21 O          25.3644   -0.5623   -9.0895 O.2       4 UNK        -0.5353 
     22 CA         23.6832   -1.8459   -7.9589 C.3       4 UNK         0.0277 
     23 CB         22.8773   -2.6996   -8.9505 C.3       4 UNK        -0.1981 
     24 N          23.6505   -2.4671   -6.6268 N.am      4 UNK        -0.4209 
     25 C          24.2205   -1.9394   -5.5345 C.2       3 UNK         0.4942 
     26 O          24.8344   -0.8705   -5.5433 O.2       3 UNK        -0.5208 
     27 CA         24.1656   -2.7802   -4.2482 C.3       3 UNK         0.0250 
     28 CB         25.1773   -3.9367   -4.3221 C.3       3 UNK        -0.1990 
     29 N          24.4827   -1.9763   -3.0679 N.am      3 UNK        -0.4232 
     30 C          23.6682   -1.0737   -2.5029 C.2       2 UNK         0.4993 
     31 O          22.5102   -0.8771   -2.8750 O.2       2 UNK        -0.5286 
     32 CA         24.2249   -0.2608   -1.3187 C.3       2 UNK         0.0209 
     33 CB         23.3201   -0.3817   -0.0785 C.3       2 UNK        -0.1931 
     34 N          25.5860   -0.6714   -0.9585 N.am      2 UNK        -0.4546 
     35 C          26.6148    0.1498   -0.7245 C.2       1 UNK         0.5154 
     36 O          26.5239    1.3805   -0.7440 O.2       1 UNK        -0.5181 
     37 C          28.1706   -1.3632   -7.6211 C.2       5 UNK         0.5014 
     38 O          29.1602   -0.7969   -8.0900 O.2       5 UNK        -0.5248 
     39 N          27.6579   -1.0629   -6.4195 N.am      6 UNK        -0.4434 
     40 CA         28.1461    0.0346   -5.5848 C.3       6 UNK         0.0363 
     41 CB         27.7460   -0.1885   -4.1197 C.3       6 UNK        -0.1936 
     42 C          27.6282    1.3835   -6.1005 C.2       6 UNK         0.5081 
     43 O          28.4061    2.3319   -6.1870 O.2       6 UNK        -0.5248 
     44 N          26.3444    1.4319   -6.4859 N.am      7 UNK        -0.4718 
     45 CA         25.6971    2.5935   -7.1053 C.3       7 UNK         0.0273 
     46 CB         24.1891    2.3305   -7.2402 C.3       7 UNK        -0.1935 
     47 C          26.3151    2.9706   -8.4644 C.2       7 UNK         0.5018 
     48 O          26.5027    4.1565   -8.7368 O.2       7 UNK        -0.5186 
     49 N          26.6625    1.9561   -9.2691 N.am      8 UNK        -0.4240 
     50 CA         27.4039    2.0897  -10.5271 C.3       8 UNK         0.0235 
     51 CB         27.2349    0.7993  -11.3465 C.3       8 UNK        -0.2000 
     52 C          28.9013    2.4055  -10.3390 C.2       8 UNK         0.4941 
     53 O          29.5614    2.7316  -11.3264 O.2       8 UNK        -0.5273 
     54 N          29.4074    2.2986   -9.1003 N.am      9 UNK        -0.4262 
     55 CA         30.7910    2.5216   -8.6727 C.3       9 UNK         0.0264 
     56 CB         31.1797    4.0083   -8.8211 C.3       9 UNK        -0.1955 
     57 C          31.7849    1.5614   -9.3511 C.2       9 UNK         0.5031 
     58 O          32.7815    2.0057   -9.9248 O.2       9 UNK        -0.5390 
     59 N          31.5013    0.2530   -9.2646 N.am      10 UNK        -0.4204 
     60 CA         32.3787   -0.8164   -9.7555 C.3       10 UNK         0.0237 
     61 CB         31.6118   -2.1488   -9.7490 C.3       10 UNK        -0.1985 
     62 C          33.6866   -0.9485   -8.9509 C.2       10 UNK         0.4970 
     63 O          34.6890   -1.4040   -9.5028 O.2       10 UNK        -0.4914 
     64 N          33.6510   -0.5553   -7.6714 N.am      11 UNK        -0.4285 
     65 CA         34.8087   -0.4900   -6.7709 C.3       11 UNK         0.1007 
     66 C          35.7825    0.6488   -7.1753 C.2       11 UNK         0.5703 
     67 N          37.0799    0.3774   -7.2148 N.am      11 UNK        -0.7361 
     68 O          35.3735    1.7849   -7.4064 O.2       11 UNK        -0.4986 
     69 C69        34.3636   -0.3300   -5.2942 C.3       12 UNK        -0.0947 
     70 S70        33.4818   -1.8010   -4.6802 S.3       12 UNK        -0.2240 
     71 C71        31.7596   -1.2205   -4.6774 C.3       12 UNK         0.0194 
     72 H72        31.3364    1.1693    2.0560 H         1 UNK         0.0906 
     73 H73        31.4792    2.0921    0.5575 H         1 UNK         0.0906 
     74 H74        30.0508    2.2793    1.5771 H         1 UNK         0.0906 
     75 H75        28.2643    1.2439    0.6716 H         1 UNK         0.3140 
     76 H76        28.4700   -0.6468   -1.3812 H         1 UNK         0.1085 
     77 H77        28.8120   -2.1422    0.7827 H         1 UNK         0.0836 
     78 H78        27.1279   -1.8900    1.0658 H         1 UNK         0.0836 
     79 H79        29.8948   -3.5296   -0.5943 H         1 UNK         0.0731 
     80 H80        29.1206   -5.0004   -1.1046 H         1 UNK         0.0731 
     81 H81        30.7330   -1.9145   -2.2419 H         1 UNK         0.1312 
     82 H82        30.7380   -3.0811   -6.3682 H         1 UNK         0.1406 
     83 H83        28.4969   -5.3506   -3.5013 H         1 UNK         0.1631 
     84 H84        29.0477   -6.2960   -5.6997 H         1 UNK         0.0717 
     85 H85        29.9603   -5.4045   -6.8813 H         1 UNK         0.0717 
     86 H86        29.2419   -3.7204   -8.3544 H         1 UNK         0.0934 
     87 H87        27.9331   -4.4005   -9.2584 H         1 UNK         0.0934 
     88 H88        27.5635   -2.1177   -9.5004 H         1 UNK         0.0739 
     89 H89        25.7290   -3.3646   -7.6981 H         1 UNK         0.3093 
     90 H90        23.1977   -0.8714   -7.8759 H         1 UNK         0.0818 
     91 H91        21.8368   -2.7941   -8.6391 H         1 UNK         0.0819 
     92 H92        22.8755   -2.2458   -9.9428 H         1 UNK         0.0819 
     93 H93        23.2908   -3.7038   -9.0524 H         1 UNK         0.0819 
     94 H94        23.1682   -3.3514   -6.5482 H         1 UNK         0.3041 
     95 H95        23.1584   -3.1876   -4.1380 H         1 UNK         0.0784 
     96 H96        24.9637   -4.6002   -5.1609 H         1 UNK         0.0793 
     97 H97        26.1993   -3.5737   -4.4438 H         1 UNK         0.0793 
     98 H98        25.1491   -4.5462   -3.4185 H         1 UNK         0.0793 
     99 H99        25.4325   -2.0366   -2.7366 H         1 UNK         0.3024 
    100 H100       24.2267    0.7814   -1.6465 H         1 UNK         0.1171 
    101 H101       22.3033   -0.0534   -0.2985 H         1 UNK         0.0786 
    102 H102       23.6873    0.2373    0.7403 H         1 UNK         0.0786 
    103 H103       23.2624   -1.4106    0.2783 H         1 UNK         0.0786 
    104 H104       25.7536   -1.6670   -0.8722 H         1 UNK         0.2977 
    105 H105       26.7986   -1.5056   -6.1228 H         1 UNK         0.3127 
    106 H106       29.2362    0.0494   -5.6335 H         1 UNK         0.0770 
    107 H107       26.6768   -0.0556   -3.9581 H         1 UNK         0.0814 
    108 H108       28.2586    0.5282   -3.4775 H         1 UNK         0.0814 
    109 H109       28.0149   -1.1888   -3.7821 H         1 UNK         0.0814 
    110 H110       25.7663    0.6092   -6.3305 H         1 UNK         0.2983 
    111 H111       25.8369    3.4436   -6.4340 H         1 UNK         0.0947 
    112 H112       23.6759    3.2053   -7.6416 H         1 UNK         0.0806 
    113 H113       23.7376    2.1028   -6.2743 H         1 UNK         0.0806 
    114 H114       23.9827    1.4961   -7.9104 H         1 UNK         0.0806 
    115 H115       26.3705    1.0146   -9.0135 H         1 UNK         0.3000 
    116 H116       26.9674    2.9149  -11.0937 H         1 UNK         0.0850 
    117 H117       27.7274    0.8818  -12.3163 H         1 UNK         0.0810 
    118 H118       26.1832    0.5831  -11.5354 H         1 UNK         0.0810 
    119 H119       27.6674   -0.0597  -10.8328 H         1 UNK         0.0810 
    120 H120       28.7730    2.0341   -8.3571 H         1 UNK         0.3040 
    121 H121       30.8206    2.2843   -7.6082 H         1 UNK         0.0766 
    122 H122       32.1700    4.1949   -8.4038 H         1 UNK         0.0812 
    123 H123       30.4783    4.6545   -8.2932 H         1 UNK         0.0812 
    124 H124       31.2038    4.3207   -9.8655 H         1 UNK         0.0812 
    125 H125       30.6335   -0.0407   -8.8134 H         1 UNK         0.3205 
    126 H126       32.6483   -0.5818  -10.7874 H         1 UNK         0.0754 
    127 H127       32.2170   -2.9501  -10.1753 H         1 UNK         0.0769 
    128 H128       30.6964   -2.0842  -10.3378 H         1 UNK         0.0769 
    129 H129       31.3399   -2.4488   -8.7368 H         1 UNK         0.0769 
    130 H130       32.7912   -0.1705   -7.3161 H         1 UNK         0.2981 
    131 H131       35.3442   -1.4378   -6.8596 H         1 UNK         0.0541 
    132 H132       37.4256   -0.5485   -7.0151 H         1 UNK         0.3459 
    133 H133       37.7263    1.1114   -7.4589 H         1 UNK         0.3459 
    134 H134       35.2331   -0.1908   -4.6489 H         1 UNK         0.0612 
    135 H135       33.7448    0.5600   -5.1642 H         1 UNK         0.0612 
    136 H136       31.5095   -0.8101   -5.6564 H         1 UNK         0.0624 
    137 H137       31.6472   -0.4089   -3.9567 H         1 UNK         0.0624 
@<TRIPOS>BOND
     1    1    2 1    
     2    1   72 1    
     3    1   73 1    
     4    1   74 1    
     5    2    3 2    
     6    2    4 am   BACKBONE|DICT|INTERRES
     7    4    5 1    
     8    4   75 1    
     9    5    6 1    
    10    5   35 1    
    11    5   76 1    
    12    6    7 1    
    13    6   77 1    
    14    6   78 1    
    15    7    8 1    
    16    8    9 1    
    17    8   79 1    
    18    8   80 1    
    19    9   10 ar   
    20    9   14 ar   
    21   10   11 ar   
    22   10   81 1    
    23   11   12 ar   
    24   11   71 1    
    25   12   13 ar   
    26   12   82 1    
    27   13   14 ar   
    28   13   15 1    
    29   14   83 1    
    30   15   16 1    
    31   15   84 1    
    32   15   85 1    
    33   16   17 1    
    34   17   18 1    
    35   17   86 1    
    36   17   87 1    
    37   18   19 1    
    38   18   37 1    
    39   18   88 1    
    40   19   20 am   BACKBONE|DICT|INTERRES
    41   19   89 1    
    42   20   21 2    
    43   20   22 1    
    44   22   23 1    
    45   22   24 1    
    46   22   90 1    
    47   23   91 1    
    48   23   92 1    
    49   23   93 1    
    50   24   25 am   BACKBONE|DICT|INTERRES
    51   24   94 1    
    52   25   26 2    
    53   25   27 1    
    54   27   28 1    
    55   27   29 1    
    56   27   95 1    
    57   28   96 1    
    58   28   97 1    
    59   28   98 1    
    60   29   30 am   BACKBONE|DICT|INTERRES
    61   29   99 1    
    62   30   31 2    
    63   30   32 1    
    64   32   33 1    
    65   32   34 1    
    66   32  100 1    
    67   33  101 1    
    68   33  102 1    
    69   33  103 1    
    70   34   35 am   BACKBONE|DICT|INTERRES
    71   34  104 1    
    72   35   36 2    
    73   37   38 2    
    74   37   39 am   BACKBONE|DICT|INTERRES
    75   39   40 1    
    76   39  105 1    
    77   40   41 1    
    78   40   42 1    
    79   40  106 1    
    80   41  107 1    
    81   41  108 1    
    82   41  109 1    
    83   42   43 2    
    84   42   44 am   BACKBONE|DICT|INTERRES
    85   44   45 1    
    86   44  110 1    
    87   45   46 1    
    88   45   47 1    
    89   45  111 1    
    90   46  112 1    
    91   46  113 1    
    92   46  114 1    
    93   47   48 2    
    94   47   49 am   BACKBONE|DICT|INTERRES
    95   49   50 1    
    96   49  115 1    
    97   50   51 1    
    98   50   52 1    
    99   50  116 1    
   100   51  117 1    
   101   51  118 1    
   102   51  119 1    
   103   52   53 2    
   104   52   54 am   BACKBONE|DICT|INTERRES
   105   54   55 1    
   106   54  120 1    
   107   55   56 1    
   108   55   57 1    
   109   55  121 1    
   110   56  122 1    
   111   56  123 1    
   112   56  124 1    
   113   57   58 2    
   114   57   59 am   BACKBONE|DICT|INTERRES
   115   59   60 1    
   116   59  125 1    
   117   60   61 1    
   118   60   62 1    
   119   60  126 1    
   120   61  127 1    
   121   61  128 1    
   122   61  129 1    
   123   62   63 2    
   124   62   64 am   BACKBONE|DICT|INTERRES
   125   64   65 1    
   126   64  130 1    
   127   65   66 1    
   128   65   69 1    
   129   65  131 1    
   130   66   67 am   BACKBONE|DICT|INTERRES
   131   66   68 2    
   132   67  132 1    
   133   67  133 1    
   134   69   70 1    
   135   69  134 1    
   136   69  135 1    
   137   70   71 1    
   138   71  136 1    
   139   71  137 1    
@<TRIPOS>SUBSTRUCTURE
     1 UNK         1 GROUP             0       ****    0 ROOT    
