@<TRIPOS>MOLECULE
3R137
137   139    1
SMALL
USER_CHARGES


@<TRIPOS>ATOM
      1 CA         24.8336   -6.1274   -5.2990 C.3       0 UNK        -0.2020 
      2 C          24.9692   -5.4680   -3.9353 C.2       0 UNK         0.4855 
      3 O          23.9905   -4.9341   -3.4126 O.2       0 UNK        -0.5197 
      4 N          26.1805   -5.4898   -3.3654 N.am      1 UNK        -0.4892 
      5 CA         26.5654   -4.8787   -2.0873 C.3       1 UNK         0.0835 
      6 C6         28.0376   -5.2033   -1.6999 C.3       12 UNK        -0.0855 
      7 S7         29.2205   -5.2454   -3.0994 S.3       12 UNK        -0.2931 
      8 C8         30.7216   -4.5152   -2.3788 C.3       12 UNK         0.0378 
      9 C9         30.8218   -3.0167   -2.6298 C.ar      12 UNK        -0.0802 
     10 C10        31.3670   -2.5441   -3.8284 C.ar      12 UNK        -0.0944 
     11 C11        31.5655   -1.1744   -4.0275 C.ar      12 UNK        -0.0787 
     12 C12        31.2098   -0.2763   -3.0185 C.ar      12 UNK        -0.0862 
     13 C13        30.6149   -0.7293   -1.8363 C.ar      12 UNK        -0.0733 
     14 C14        30.4281   -2.1033   -1.6467 C.ar      12 UNK        -0.0832 
     15 C15        30.1898    0.2573   -0.7517 C.3       12 UNK         0.0240 
     16 S16        29.1758    1.6412   -1.3809 S.3       12 UNK        -0.2522 
     17 C17        27.8255    0.7595   -2.2309 C.3       12 UNK        -0.0967 
     18 CA         27.9668    0.8349   -3.7755 C.3       5 UNK         0.0660 
     19 N          27.5335   -0.4034   -4.4247 N.am      5 UNK        -0.4015 
     20 C          27.6764   -0.6932   -5.7253 C.2       4 UNK         0.4946 
     21 O          28.2699    0.0227   -6.5305 O.2       4 UNK        -0.5353 
     22 CA         26.9833   -1.9701   -6.2264 C.3       4 UNK         0.0277 
     23 CB         27.8594   -3.2082   -5.9869 C.3       4 UNK        -0.1981 
     24 N          25.6748   -2.1549   -5.5944 N.am      4 UNK        -0.4209 
     25 C          24.6079   -1.3775   -5.8326 C.2       3 UNK         0.4942 
     26 O          24.5924   -0.4785   -6.6723 O.2       3 UNK        -0.5208 
     27 CA         23.3681   -1.6040   -4.9519 C.3       3 UNK         0.0250 
     28 CB         22.4606   -2.6903   -5.5492 C.3       3 UNK        -0.1990 
     29 N          23.7208   -1.9437   -3.5701 N.am      3 UNK        -0.4232 
     30 C          24.2577   -1.0676   -2.7062 C.2       2 UNK         0.4993 
     31 O          24.4670    0.1137   -2.9791 O.2       2 UNK        -0.5286 
     32 CA         24.6865   -1.5982   -1.3266 C.3       2 UNK         0.0209 
     33 CB         23.5209   -1.5089   -0.3295 C.3       2 UNK        -0.1931 
     34 N          25.1996   -2.9709   -1.3611 N.am      2 UNK        -0.4546 
     35 C          26.2652   -3.3665   -2.0714 C.2       1 UNK         0.5154 
     36 O          26.9505   -2.5961   -2.7429 O.2       1 UNK        -0.5181 
     37 C          27.2650    2.0779   -4.3592 C.2       5 UNK         0.5014 
     38 O          27.9357    3.0670   -4.6572 O.2       5 UNK        -0.5248 
     39 N          25.9380    1.9944   -4.5398 N.am      6 UNK        -0.4434 
     40 CA         25.1136    3.0290   -5.1688 C.3       6 UNK         0.0363 
     41 CB         23.6264    2.6780   -5.0041 C.3       6 UNK        -0.1936 
     42 C          25.4579    3.2556   -6.6510 C.2       6 UNK         0.5081 
     43 O          25.4943    4.4059   -7.0891 O.2       6 UNK        -0.5248 
     44 N          25.7148    2.1676   -7.3923 N.am      7 UNK        -0.4718 
     45 CA         26.1653    2.2078   -8.7867 C.3       7 UNK         0.0273 
     46 CB         26.0702    0.8022   -9.4014 C.3       7 UNK        -0.1935 
     47 C          27.5918    2.7620   -8.9396 C.2       7 UNK         0.5018 
     48 O          27.8699    3.4405   -9.9291 O.2       7 UNK        -0.5186 
     49 N          28.4700    2.4417   -7.9776 N.am      8 UNK        -0.4240 
     50 CA         29.8816    2.8238   -7.8265 C.3       8 UNK         0.0235 
     51 CB         30.0495    4.3520   -7.7362 C.3       8 UNK        -0.2000 
     52 C          30.8259    2.2197   -8.8800 C.2       8 UNK         0.4941 
     53 O          31.9238    1.7900   -8.5242 O.2       8 UNK        -0.5273 
     54 N          30.3784    2.1524  -10.1416 N.am      9 UNK        -0.4262 
     55 CA         31.0919    1.6113  -11.3048 C.3       9 UNK         0.0264 
     56 CB         30.2031    1.7592  -12.5498 C.3       9 UNK        -0.1955 
     57 C          31.5621    0.1530  -11.1527 C.2       9 UNK         0.5031 
     58 O          32.5327   -0.2348  -11.8037 O.2       9 UNK        -0.5390 
     59 N          30.9104   -0.6114  -10.2649 N.am      10 UNK        -0.4204 
     60 CA         31.3051   -1.9578   -9.8420 C.3       10 UNK         0.0237 
     61 CB         30.2500   -2.4949   -8.8626 C.3       10 UNK        -0.1985 
     62 C          32.7105   -2.0302   -9.2098 C.2       10 UNK         0.4970 
     63 O          33.3521   -3.0769   -9.3054 O.2       10 UNK        -0.4914 
     64 N          33.1654   -0.9265   -8.6019 N.am      11 UNK        -0.4285 
     65 CA         34.5293   -0.7476   -8.0845 C.3       11 UNK         0.1007 
     66 C          35.5108   -0.1395   -9.1318 C.2       11 UNK         0.5703 
     67 N          35.1139    0.1097  -10.3751 N.am      11 UNK        -0.7361 
     68 O          36.6763    0.0914   -8.8178 O.2       11 UNK        -0.4986 
     69 C69        34.5146    0.0589   -6.7572 C.3       12 UNK        -0.0947 
     70 S70        33.9728   -0.9478   -5.3378 S.3       12 UNK        -0.2240 
     71 C71        32.1778   -0.6633   -5.3227 C.3       12 UNK         0.0194 
     72 H72        25.7137   -6.7176   -5.5538 H         1 UNK         0.0906 
     73 H73        23.9686   -6.7900   -5.3113 H         1 UNK         0.0906 
     74 H74        24.6963   -5.3718   -6.0717 H         1 UNK         0.0906 
     75 H75        26.9549   -5.9104   -3.8616 H         1 UNK         0.3140 
     76 H76        25.9321   -5.3371   -1.3246 H         1 UNK         0.1085 
     77 H77        28.3963   -4.5194   -0.9282 H         1 UNK         0.0836 
     78 H78        28.0688   -6.1920   -1.2395 H         1 UNK         0.0836 
     79 H79        31.5881   -5.0089   -2.8215 H         1 UNK         0.0731 
     80 H80        30.7717   -4.7345   -1.3112 H         1 UNK         0.0731 
     81 H81        31.6649   -3.2447   -4.5967 H         1 UNK         0.1312 
     82 H82        31.3746    0.7829   -3.1614 H         1 UNK         0.1406 
     83 H83        29.9941   -2.4657   -0.7250 H         1 UNK         0.1631 
     84 H84        31.0833    0.6639   -0.2764 H         1 UNK         0.0717 
     85 H85        29.6276   -0.2512    0.0332 H         1 UNK         0.0717 
     86 H86        27.8394   -0.2771   -1.8933 H         1 UNK         0.0934 
     87 H87        26.8678    1.1561   -1.8879 H         1 UNK         0.0934 
     88 H88        29.0221    0.9344   -4.0312 H         1 UNK         0.0739 
     89 H89        27.1271   -1.1143   -3.8205 H         1 UNK         0.3093 
     90 H90        26.8304   -1.8665   -7.3027 H         1 UNK         0.0818 
     91 H91        28.0518   -3.3647   -4.9276 H         1 UNK         0.0819 
     92 H92        27.3946   -4.1110   -6.3828 H         1 UNK         0.0819 
     93 H93        28.8300   -3.1032   -6.4692 H         1 UNK         0.0819 
     94 H94        25.6243   -2.8262   -4.8422 H         1 UNK         0.3041 
     95 H95        22.8023   -0.6699   -4.9346 H         1 UNK         0.0784 
     96 H96        22.1500   -2.4235   -6.5603 H         1 UNK         0.0793 
     97 H97        22.9626   -3.6554   -5.6081 H         1 UNK         0.0793 
     98 H98        21.5551   -2.8200   -4.9562 H         1 UNK         0.0793 
     99 H99        23.6223   -2.9160   -3.2928 H         1 UNK         0.3024 
    100 H100       25.4922   -0.9537   -0.9689 H         1 UNK         0.1171 
    101 H101       23.8353   -1.7909    0.6756 H         1 UNK         0.0786 
    102 H102       23.1347   -0.4900   -0.2718 H         1 UNK         0.0786 
    103 H103       22.6914   -2.1562   -0.6172 H         1 UNK         0.0786 
    104 H104       24.6548   -3.6681   -0.8734 H         1 UNK         0.2977 
    105 H105       25.4467    1.1779   -4.1814 H         1 UNK         0.3127 
    106 H106       25.3015    3.9655   -4.6395 H         1 UNK         0.0770 
    107 H107       23.3758    1.7402   -5.5005 H         1 UNK         0.0814 
    108 H108       22.9926    3.4545   -5.4342 H         1 UNK         0.0814 
    109 H109       23.3550    2.5827   -3.9525 H         1 UNK         0.0814 
    110 H110       25.5817    1.2493   -6.9788 H         1 UNK         0.2983 
    111 H111       25.4943    2.8690   -9.3395 H         1 UNK         0.0947 
    112 H112       26.3728    0.8120  -10.4494 H         1 UNK         0.0806 
    113 H113       25.0495    0.4212   -9.3621 H         1 UNK         0.0806 
    114 H114       26.7119    0.0899   -8.8822 H         1 UNK         0.0806 
    115 H115       28.1539    1.7706   -7.2806 H         1 UNK         0.3000 
    116 H116       30.1860    2.4052   -6.8655 H         1 UNK         0.0850 
    117 H117       31.0852    4.6163   -7.5190 H         1 UNK         0.0810 
    118 H118       29.4339    4.7676   -6.9380 H         1 UNK         0.0810 
    119 H119       29.7757    4.8508   -8.6662 H         1 UNK         0.0810 
    120 H120       29.4667    2.5694  -10.3167 H         1 UNK         0.3040 
    121 H121       31.9860    2.2218  -11.4451 H         1 UNK         0.0766 
    122 H122       29.9465    2.8029  -12.7328 H         1 UNK         0.0812 
    123 H123       29.2732    1.1978  -12.4501 H         1 UNK         0.0812 
    124 H124       30.7132    1.3916  -13.4415 H         1 UNK         0.0812 
    125 H125       30.1279   -0.1972   -9.7802 H         1 UNK         0.3205 
    126 H126       31.3130   -2.5946  -10.7289 H         1 UNK         0.0754 
    127 H127       30.5125   -3.4934   -8.5098 H         1 UNK         0.0769 
    128 H128       29.2691   -2.5664   -9.3331 H         1 UNK         0.0769 
    129 H129       30.1552   -1.8509   -7.9875 H         1 UNK         0.0769 
    130 H130       32.5927   -0.0880   -8.5975 H         1 UNK         0.2981 
    131 H131       34.9502   -1.7297   -7.8618 H         1 UNK         0.0541 
    132 H132       35.7782    0.4939  -11.0276 H         1 UNK         0.3459 
    133 H133       34.1723   -0.0988  -10.6873 H         1 UNK         0.3459 
    134 H134       33.8968    0.9540   -6.8437 H         1 UNK         0.0612 
    135 H135       35.5148    0.4137   -6.5030 H         1 UNK         0.0612 
    136 H136       31.9718    0.4008   -5.4498 H         1 UNK         0.0624 
    137 H137       31.7194   -1.1723   -6.1708 H         1 UNK         0.0624 
@<TRIPOS>BOND
     1    1    2 1    
     2    1   72 1    
     3    1   73 1    
     4    1   74 1    
     5    2    3 2    
     6    2    4 am   BACKBONE|DICT|INTERRES
     7    4    5 1    
     8    4   75 1    
     9    5    6 1    
    10    5   35 1    
    11    5   76 1    
    12    6    7 1    
    13    6   77 1    
    14    6   78 1    
    15    7    8 1    
    16    8    9 1    
    17    8   79 1    
    18    8   80 1    
    19    9   10 ar   
    20    9   14 ar   
    21   10   11 ar   
    22   10   81 1    
    23   11   12 ar   
    24   11   71 1    
    25   12   13 ar   
    26   12   82 1    
    27   13   14 ar   
    28   13   15 1    
    29   14   83 1    
    30   15   16 1    
    31   15   84 1    
    32   15   85 1    
    33   16   17 1    
    34   17   18 1    
    35   17   86 1    
    36   17   87 1    
    37   18   19 1    
    38   18   37 1    
    39   18   88 1    
    40   19   20 am   BACKBONE|DICT|INTERRES
    41   19   89 1    
    42   20   21 2    
    43   20   22 1    
    44   22   23 1    
    45   22   24 1    
    46   22   90 1    
    47   23   91 1    
    48   23   92 1    
    49   23   93 1    
    50   24   25 am   BACKBONE|DICT|INTERRES
    51   24   94 1    
    52   25   26 2    
    53   25   27 1    
    54   27   28 1    
    55   27   29 1    
    56   27   95 1    
    57   28   96 1    
    58   28   97 1    
    59   28   98 1    
    60   29   30 am   BACKBONE|DICT|INTERRES
    61   29   99 1    
    62   30   31 2    
    63   30   32 1    
    64   32   33 1    
    65   32   34 1    
    66   32  100 1    
    67   33  101 1    
    68   33  102 1    
    69   33  103 1    
    70   34   35 am   BACKBONE|DICT|INTERRES
    71   34  104 1    
    72   35   36 2    
    73   37   38 2    
    74   37   39 am   BACKBONE|DICT|INTERRES
    75   39   40 1    
    76   39  105 1    
    77   40   41 1    
    78   40   42 1    
    79   40  106 1    
    80   41  107 1    
    81   41  108 1    
    82   41  109 1    
    83   42   43 2    
    84   42   44 am   BACKBONE|DICT|INTERRES
    85   44   45 1    
    86   44  110 1    
    87   45   46 1    
    88   45   47 1    
    89   45  111 1    
    90   46  112 1    
    91   46  113 1    
    92   46  114 1    
    93   47   48 2    
    94   47   49 am   BACKBONE|DICT|INTERRES
    95   49   50 1    
    96   49  115 1    
    97   50   51 1    
    98   50   52 1    
    99   50  116 1    
   100   51  117 1    
   101   51  118 1    
   102   51  119 1    
   103   52   53 2    
   104   52   54 am   BACKBONE|DICT|INTERRES
   105   54   55 1    
   106   54  120 1    
   107   55   56 1    
   108   55   57 1    
   109   55  121 1    
   110   56  122 1    
   111   56  123 1    
   112   56  124 1    
   113   57   58 2    
   114   57   59 am   BACKBONE|DICT|INTERRES
   115   59   60 1    
   116   59  125 1    
   117   60   61 1    
   118   60   62 1    
   119   60  126 1    
   120   61  127 1    
   121   61  128 1    
   122   61  129 1    
   123   62   63 2    
   124   62   64 am   BACKBONE|DICT|INTERRES
   125   64   65 1    
   126   64  130 1    
   127   65   66 1    
   128   65   69 1    
   129   65  131 1    
   130   66   67 am   BACKBONE|DICT|INTERRES
   131   66   68 2    
   132   67  132 1    
   133   67  133 1    
   134   69   70 1    
   135   69  134 1    
   136   69  135 1    
   137   70   71 1    
   138   71  136 1    
   139   71  137 1    
@<TRIPOS>SUBSTRUCTURE
     1 UNK         1 GROUP             0       ****    0 ROOT    
