@<TRIPOS>MOLECULE
3R137
137   139    1
SMALL
USER_CHARGES


@<TRIPOS>ATOM
      1 CA         24.2435   -5.9528   -4.9637 C.3       0 UNK        -0.2020 
      2 C          24.8473   -5.3086   -3.7257 C.2       0 UNK         0.4855 
      3 O          24.1139   -4.7403   -2.9155 O.2       0 UNK        -0.5197 
      4 N          26.1775   -5.3839   -3.5711 N.am      1 UNK        -0.4892 
      5 CA         26.9198   -4.8063   -2.4447 C.3       1 UNK         0.0835 
      6 C6         28.4079   -5.2334   -2.4485 C.3       12 UNK        -0.0855 
      7 S7         29.1197   -5.1631   -0.7709 S.3       12 UNK        -0.2931 
      8 C8         30.9027   -5.0070   -1.1298 C.3       12 UNK         0.0378 
      9 C9         31.3157   -3.6764   -1.7585 C.ar      12 UNK        -0.0802 
     10 C10        32.3620   -3.6566   -2.6874 C.ar      12 UNK        -0.0944 
     11 C11        32.8036   -2.4584   -3.2588 C.ar      12 UNK        -0.0787 
     12 C12        32.1764   -1.2637   -2.8828 C.ar      12 UNK        -0.0862 
     13 C13        31.1136   -1.2665   -1.9759 C.ar      12 UNK        -0.0733 
     14 C14        30.6974   -2.4711   -1.4048 C.ar      12 UNK        -0.0832 
     15 C15        30.4013    0.0344   -1.6353 C.3       12 UNK         0.0240 
     16 S16        28.8831    0.2493   -2.6193 S.3       12 UNK        -0.2522 
     17 C17        29.5429    0.2211   -4.3178 C.3       12 UNK        -0.0967 
     18 CA         28.4927    0.4439   -5.4269 C.3       5 UNK         0.0660 
     19 N          27.5015   -0.6377   -5.5204 N.am      5 UNK        -0.4015 
     20 C          26.7575   -0.8576   -6.6164 C.2       4 UNK         0.4946 
     21 O          26.8164   -0.1534   -7.6244 O.2       4 UNK        -0.5353 
     22 CA         25.7649   -2.0243   -6.5797 C.3       4 UNK         0.0277 
     23 CB         26.4877   -3.3772   -6.6835 C.3       4 UNK        -0.1981 
     24 N          24.9479   -1.9755   -5.3691 N.am      4 UNK        -0.4209 
     25 C          23.8280   -1.2474   -5.2478 C.2       3 UNK         0.4942 
     26 O          23.3494   -0.5751   -6.1612 O.2       3 UNK        -0.5208 
     27 CA         23.1098   -1.2641   -3.8872 C.3       3 UNK         0.0250 
     28 CB         21.9155   -2.2314   -3.9201 C.3       3 UNK        -0.1990 
     29 N          23.9955   -1.6192   -2.7764 N.am      3 UNK        -0.4232 
     30 C          24.9006   -0.7824   -2.2469 C.2       2 UNK         0.4993 
     31 O          25.0522    0.3806   -2.6188 O.2       2 UNK        -0.5286 
     32 CA         25.8156   -1.3453   -1.1442 C.3       2 UNK         0.0209 
     33 CB         25.1690   -1.1578    0.2373 C.3       2 UNK        -0.1931 
     34 N          26.1723   -2.7559   -1.3271 N.am      2 UNK        -0.4546 
     35 C          26.7570   -3.2736   -2.4169 C.2       1 UNK         0.5154 
     36 O          27.0943   -2.6102   -3.4015 O.2       1 UNK        -0.5181 
     37 C          27.8735    1.8574   -5.4078 C.2       5 UNK         0.5014 
     38 O          28.5759    2.8166   -5.7274 O.2       5 UNK        -0.5248 
     39 N          26.5641    1.9671   -5.1348 N.am      6 UNK        -0.4434 
     40 CA         25.7623    3.1779   -5.3414 C.3       6 UNK         0.0363 
     41 CB         24.3329    2.9353   -4.8318 C.3       6 UNK        -0.1936 
     42 C          25.7320    3.6625   -6.8067 C.2       6 UNK         0.5081 
     43 O          25.5489    4.8581   -7.0351 O.2       6 UNK        -0.5248 
     44 N          25.9389    2.7493   -7.7686 N.am      7 UNK        -0.4718 
     45 CA         26.0818    3.0568   -9.1952 C.3       7 UNK         0.0273 
     46 CB         25.5098    1.8884  -10.0170 C.3       7 UNK        -0.1935 
     47 C          27.5411    3.3466   -9.6013 C.2       7 UNK         0.5018 
     48 O          27.7929    3.5683  -10.7867 O.2       7 UNK        -0.5186 
     49 N          28.4794    3.3148   -8.6406 N.am      8 UNK        -0.4240 
     50 CA         29.9292    3.5406   -8.7404 C.3       8 UNK         0.0235 
     51 CB         30.2500    4.9556   -9.2597 C.3       8 UNK        -0.2000 
     52 C          30.7000    2.4715   -9.5335 C.2       8 UNK         0.4941 
     53 O          31.7282    1.9974   -9.0517 O.2       8 UNK        -0.5273 
     54 N          30.1930    2.0969  -10.7151 N.am      9 UNK        -0.4262 
     55 CA         30.8142    1.1951  -11.6941 C.3       9 UNK         0.0264 
     56 CB         29.9070    1.1105  -12.9326 C.3       9 UNK        -0.1955 
     57 C          31.1513   -0.2183  -11.1814 C.2       9 UNK         0.5031 
     58 O          32.0151   -0.8760  -11.7633 O.2       9 UNK        -0.5390 
     59 N          30.4815   -0.6605  -10.1093 N.am      10 UNK        -0.4204 
     60 CA         30.7393   -1.9305   -9.4271 C.3       10 UNK         0.0237 
     61 CB         29.5175   -2.2848   -8.5668 C.3       10 UNK        -0.1985 
     62 C          32.0153   -1.9298   -8.5611 C.2       10 UNK         0.4970 
     63 O          32.4227   -3.0047   -8.1186 O.2       10 UNK        -0.4914 
     64 N          32.6083   -0.7558   -8.3105 N.am      11 UNK        -0.4285 
     65 CA         33.7987   -0.5739   -7.4735 C.3       11 UNK         0.1007 
     66 C          34.7633    0.4829   -8.0852 C.2       11 UNK         0.5703 
     67 N          35.6690    1.0470   -7.2981 N.am      11 UNK        -0.7361 
     68 O          34.7363    0.7644   -9.2822 O.2       11 UNK        -0.4986 
     69 C69        33.3985   -0.3265   -5.9891 C.3       12 UNK        -0.0947 
     70 S70        34.6557   -0.9202   -4.8050 S.3       12 UNK        -0.2240 
     71 C71        33.9452   -2.5210   -4.2797 C.3       12 UNK         0.0194 
     72 H72        23.7201   -5.2040   -5.5578 H         1 UNK         0.0906 
     73 H73        25.0008   -6.4201   -5.5927 H         1 UNK         0.0906 
     74 H74        23.5249   -6.7186   -4.6732 H         1 UNK         0.0906 
     75 H75        26.7352   -5.8435   -4.2766 H         1 UNK         0.3140 
     76 H76        26.4546   -5.2183   -1.5458 H         1 UNK         0.1085 
     77 H77        28.9961   -4.6282   -3.1422 H         1 UNK         0.0836 
     78 H78        28.5056   -6.2649   -2.7908 H         1 UNK         0.0836 
     79 H79        31.1973   -5.8396   -1.7709 H         1 UNK         0.0731 
     80 H80        31.4539   -5.1282   -0.1965 H         1 UNK         0.0731 
     81 H81        32.8444   -4.5841   -2.9658 H         1 UNK         0.1312 
     82 H82        32.4869   -0.3211   -3.3081 H         1 UNK         0.1406 
     83 H83        29.8825   -2.4656   -0.6941 H         1 UNK         0.1631 
     84 H84        31.0602    0.8887   -1.7982 H         1 UNK         0.0717 
     85 H85        30.1413    0.0470   -0.5758 H         1 UNK         0.0717 
     86 H86        30.3390    0.9642   -4.3965 H         1 UNK         0.0934 
     87 H87        30.0180   -0.7459   -4.4868 H         1 UNK         0.0934 
     88 H88        29.0559    0.4100   -6.3624 H         1 UNK         0.0739 
     89 H89        27.4100   -1.2525   -4.7135 H         1 UNK         0.3093 
     90 H90        25.1142   -1.9339   -7.4526 H         1 UNK         0.0818 
     91 H91        27.1861   -3.5404   -5.8627 H         1 UNK         0.0819 
     92 H92        27.0555   -3.4417   -7.6112 H         1 UNK         0.0819 
     93 H93        25.7778   -4.2026   -6.6929 H         1 UNK         0.0819 
     94 H94        25.3240   -2.4361   -4.5494 H         1 UNK         0.3041 
     95 H95        22.7231   -0.2578   -3.7101 H         1 UNK         0.0784 
     96 H96        21.2070   -1.9477   -4.6997 H         1 UNK         0.0793 
     97 H97        22.2277   -3.2560   -4.1237 H         1 UNK         0.0793 
     98 H98        21.3738   -2.2267   -2.9741 H         1 UNK         0.0793 
     99 H99        23.9596   -2.5790   -2.4510 H         1 UNK         0.3024 
    100 H100       26.7394   -0.7684   -1.1618 H         1 UNK         0.1171 
    101 H101       25.8468   -1.4571    1.0371 H         1 UNK         0.0786 
    102 H102       24.9126   -0.1112    0.4083 H         1 UNK         0.0786 
    103 H103       24.2514   -1.7390    0.3373 H         1 UNK         0.0786 
    104 H104       25.9110   -3.3819   -0.5787 H         1 UNK         0.2977 
    105 H105       26.0696    1.1445   -4.8169 H         1 UNK         0.3127 
    106 H106       26.2098    3.9751   -4.7443 H         1 UNK         0.0770 
    107 H107       23.8517    2.1094   -5.3572 H         1 UNK         0.0814 
    108 H108       23.7109    3.8199   -4.9749 H         1 UNK         0.0814 
    109 H109       24.3248    2.7071   -3.7661 H         1 UNK         0.0814 
    110 H110       26.0959    1.7799   -7.5090 H         1 UNK         0.2983 
    111 H111       25.5006    3.9503   -9.4336 H         1 UNK         0.0947 
    112 H112       25.5005    2.1264  -11.0814 H         1 UNK         0.0806 
    113 H113       24.4830    1.6638   -9.7282 H         1 UNK         0.0806 
    114 H114       26.0993    0.9794   -9.8945 H         1 UNK         0.0806 
    115 H115       28.1659    3.1142   -7.6967 H         1 UNK         0.3000 
    116 H116       30.3003    3.4850   -7.7157 H         1 UNK         0.0850 
    117 H117       31.3241    5.1440   -9.2328 H         1 UNK         0.0810 
    118 H118       29.7721    5.7193   -8.6461 H         1 UNK         0.0810 
    119 H119       29.9233    5.1002  -10.2898 H         1 UNK         0.0810 
    120 H120       29.3290    2.5556  -10.9982 H         1 UNK         0.3040 
    121 H121       31.7588    1.6538  -11.9932 H         1 UNK         0.0766 
    122 H122       29.7527    2.0927  -13.3799 H         1 UNK         0.0812 
    123 H123       28.9283    0.6966  -12.6864 H         1 UNK         0.0812 
    124 H124       30.3482    0.4729  -13.7002 H         1 UNK         0.0812 
    125 H125       29.7851   -0.0537   -9.7019 H         1 UNK         0.3205 
    126 H126       30.8600   -2.7079  -10.1846 H         1 UNK         0.0754 
    127 H127       29.6245   -3.2764   -8.1247 H         1 UNK         0.0769 
    128 H128       28.6012   -2.2891   -9.1576 H         1 UNK         0.0769 
    129 H129       29.3897   -1.5776   -7.7480 H         1 UNK         0.0769 
    130 H130       32.2582    0.0966   -8.7397 H         1 UNK         0.2981 
    131 H131       34.3702   -1.5026   -7.5215 H         1 UNK         0.0541 
    132 H132       35.7165    0.7996   -6.3208 H         1 UNK         0.3459 
    133 H133       36.3124    1.7193   -7.6849 H         1 UNK         0.3459 
    134 H134       33.2032    0.7318   -5.8075 H         1 UNK         0.0612 
    135 H135       32.4607   -0.8360   -5.7621 H         1 UNK         0.0612 
    136 H136       34.7565   -3.1133   -3.8543 H         1 UNK         0.0624 
    137 H137       33.6026   -3.0601   -5.1645 H         1 UNK         0.0624 
@<TRIPOS>BOND
     1    1    2 1    
     2    1   72 1    
     3    1   73 1    
     4    1   74 1    
     5    2    3 2    
     6    2    4 am   BACKBONE|DICT|INTERRES
     7    4    5 1    
     8    4   75 1    
     9    5    6 1    
    10    5   35 1    
    11    5   76 1    
    12    6    7 1    
    13    6   77 1    
    14    6   78 1    
    15    7    8 1    
    16    8    9 1    
    17    8   79 1    
    18    8   80 1    
    19    9   10 ar   
    20    9   14 ar   
    21   10   11 ar   
    22   10   81 1    
    23   11   12 ar   
    24   11   71 1    
    25   12   13 ar   
    26   12   82 1    
    27   13   14 ar   
    28   13   15 1    
    29   14   83 1    
    30   15   16 1    
    31   15   84 1    
    32   15   85 1    
    33   16   17 1    
    34   17   18 1    
    35   17   86 1    
    36   17   87 1    
    37   18   19 1    
    38   18   37 1    
    39   18   88 1    
    40   19   20 am   BACKBONE|DICT|INTERRES
    41   19   89 1    
    42   20   21 2    
    43   20   22 1    
    44   22   23 1    
    45   22   24 1    
    46   22   90 1    
    47   23   91 1    
    48   23   92 1    
    49   23   93 1    
    50   24   25 am   BACKBONE|DICT|INTERRES
    51   24   94 1    
    52   25   26 2    
    53   25   27 1    
    54   27   28 1    
    55   27   29 1    
    56   27   95 1    
    57   28   96 1    
    58   28   97 1    
    59   28   98 1    
    60   29   30 am   BACKBONE|DICT|INTERRES
    61   29   99 1    
    62   30   31 2    
    63   30   32 1    
    64   32   33 1    
    65   32   34 1    
    66   32  100 1    
    67   33  101 1    
    68   33  102 1    
    69   33  103 1    
    70   34   35 am   BACKBONE|DICT|INTERRES
    71   34  104 1    
    72   35   36 2    
    73   37   38 2    
    74   37   39 am   BACKBONE|DICT|INTERRES
    75   39   40 1    
    76   39  105 1    
    77   40   41 1    
    78   40   42 1    
    79   40  106 1    
    80   41  107 1    
    81   41  108 1    
    82   41  109 1    
    83   42   43 2    
    84   42   44 am   BACKBONE|DICT|INTERRES
    85   44   45 1    
    86   44  110 1    
    87   45   46 1    
    88   45   47 1    
    89   45  111 1    
    90   46  112 1    
    91   46  113 1    
    92   46  114 1    
    93   47   48 2    
    94   47   49 am   BACKBONE|DICT|INTERRES
    95   49   50 1    
    96   49  115 1    
    97   50   51 1    
    98   50   52 1    
    99   50  116 1    
   100   51  117 1    
   101   51  118 1    
   102   51  119 1    
   103   52   53 2    
   104   52   54 am   BACKBONE|DICT|INTERRES
   105   54   55 1    
   106   54  120 1    
   107   55   56 1    
   108   55   57 1    
   109   55  121 1    
   110   56  122 1    
   111   56  123 1    
   112   56  124 1    
   113   57   58 2    
   114   57   59 am   BACKBONE|DICT|INTERRES
   115   59   60 1    
   116   59  125 1    
   117   60   61 1    
   118   60   62 1    
   119   60  126 1    
   120   61  127 1    
   121   61  128 1    
   122   61  129 1    
   123   62   63 2    
   124   62   64 am   BACKBONE|DICT|INTERRES
   125   64   65 1    
   126   64  130 1    
   127   65   66 1    
   128   65   69 1    
   129   65  131 1    
   130   66   67 am   BACKBONE|DICT|INTERRES
   131   66   68 2    
   132   67  132 1    
   133   67  133 1    
   134   69   70 1    
   135   69  134 1    
   136   69  135 1    
   137   70   71 1    
   138   71  136 1    
   139   71  137 1    
@<TRIPOS>SUBSTRUCTURE
     1 UNK         1 GROUP             0       ****    0 ROOT    
