@<TRIPOS>MOLECULE
3R137
137   139    1
SMALL
USER_CHARGES


@<TRIPOS>ATOM
      1 CA         25.0513   -4.4558    2.1529 C.3       0 UNK        -0.2020 
      2 C          26.1183   -5.1800    1.3358 C.2       0 UNK         0.4855 
      3 O          26.0013   -6.3856    1.1268 O.2       0 UNK        -0.5197 
      4 N          27.1736   -4.5058    0.8561 N.am      1 UNK        -0.4892 
      5 CA         27.4484   -3.0646    0.9633 C.3       1 UNK         0.0835 
      6 C6         28.9446   -2.7424    0.7117 C.3       12 UNK        -0.0855 
      7 S7         29.6536   -3.5270   -0.7792 S.3       12 UNK        -0.2931 
      8 C8         29.6741   -2.1230   -1.9307 C.3       12 UNK         0.0378 
      9 C9         30.2900   -2.5108   -3.2652 C.ar      12 UNK        -0.0802 
     10 C10        31.5578   -2.0434   -3.6217 C.ar      12 UNK        -0.0944 
     11 C11        32.1131   -2.3852   -4.8567 C.ar      12 UNK        -0.0787 
     12 C12        31.3701   -3.1628   -5.7504 C.ar      12 UNK        -0.0862 
     13 C13        30.0920   -3.6270   -5.4197 C.ar      12 UNK        -0.0733 
     14 C14        29.5799   -3.3266   -4.1511 C.ar      12 UNK        -0.0832 
     15 C15        29.3342   -4.4378   -6.4782 C.3       12 UNK         0.0240 
     16 S16        27.6379   -5.0188   -6.0914 S.3       12 UNK        -0.2522 
     17 C17        26.5975   -3.5574   -5.7216 C.3       12 UNK        -0.0967 
     18 CA         26.4188   -2.4672   -6.8083 C.3       5 UNK         0.0660 
     19 N          25.2410   -1.6476   -6.5081 N.am      5 UNK        -0.4015 
     20 C          24.7274   -0.6812   -7.2820 C.2       4 UNK         0.4946 
     21 O          25.1305   -0.4086   -8.4120 O.2       4 UNK        -0.5353 
     22 CA         23.5958    0.1543   -6.6593 C.3       4 UNK         0.0277 
     23 CB         22.2416   -0.5530   -6.8285 C.3       4 UNK        -0.1981 
     24 N          23.8259    0.4534   -5.2406 N.am      4 UNK        -0.4209 
     25 C          24.8250    1.2249   -4.7853 C.2       3 UNK         0.4942 
     26 O          25.6386    1.7871   -5.5145 O.2       3 UNK        -0.5208 
     27 CA         24.9664    1.3725   -3.2623 C.3       3 UNK         0.0250 
     28 CB         24.0909    2.5262   -2.7480 C.3       3 UNK        -0.1990 
     29 N          24.6511    0.1464   -2.5248 N.am      3 UNK        -0.4232 
     30 C          25.3576   -0.9895   -2.6009 C.2       2 UNK         0.4993 
     31 O          26.3341   -1.1443   -3.3388 O.2       2 UNK        -0.5286 
     32 CA         24.8460   -2.1652   -1.7517 C.3       2 UNK         0.0209 
     33 CB         24.2022   -3.2410   -2.6407 C.3       2 UNK        -0.1931 
     34 N          25.8918   -2.7826   -0.9331 N.am      2 UNK        -0.4546 
     35 C          26.5076   -2.1916    0.1013 C.2       1 UNK         0.5154 
     36 O          26.3115   -1.0209    0.4299 O.2       1 UNK        -0.5181 
     37 C          27.6570   -1.5643   -6.9470 C.2       5 UNK         0.5014 
     38 O          28.3108   -1.5932   -7.9907 O.2       5 UNK        -0.5248 
     39 N          27.9166   -0.7429   -5.9167 N.am      6 UNK        -0.4434 
     40 CA         29.0243    0.2131   -5.8819 C.3       6 UNK         0.0363 
     41 CB         29.0504    0.9360   -4.5266 C.3       6 UNK        -0.1936 
     42 C          28.9869    1.2229   -7.0404 C.2       6 UNK         0.5081 
     43 O          30.0208    1.4553   -7.6624 O.2       6 UNK        -0.5248 
     44 N          27.8004    1.7696   -7.3402 N.am      7 UNK        -0.4718 
     45 CA         27.5609    2.6765   -8.4644 C.3       7 UNK         0.0273 
     46 CB         26.1346    3.2431   -8.3856 C.3       7 UNK        -0.1935 
     47 C          27.8101    2.0196   -9.8310 C.2       7 UNK         0.5018 
     48 O          28.4809    2.6238  -10.6680 O.2       7 UNK        -0.5186 
     49 N          27.2995    0.7941  -10.0266 N.am      8 UNK        -0.4240 
     50 CA         27.4931    0.0039  -11.2474 C.3       8 UNK         0.0235 
     51 CB         26.5922   -1.2409  -11.2122 C.3       8 UNK        -0.2000 
     52 C          28.9600   -0.3951  -11.4785 C.2       8 UNK         0.4941 
     53 O          29.4309   -0.3379  -12.6151 O.2       8 UNK        -0.5273 
     54 N          29.6592   -0.7675  -10.3987 N.am      9 UNK        -0.4262 
     55 CA         31.0852   -1.1017  -10.4036 C.3       9 UNK         0.0264 
     56 CB         31.3909   -1.9427   -9.1562 C.3       9 UNK        -0.1955 
     57 C          32.0153    0.1267  -10.4728 C.2       9 UNK         0.5031 
     58 O          33.2066   -0.0488  -10.7330 O.2       9 UNK        -0.5390 
     59 N          31.4694    1.3290  -10.2331 N.am      10 UNK        -0.4204 
     60 CA         32.1506    2.6254  -10.1228 C.3       10 UNK         0.0237 
     61 CB         32.7885    3.0401  -11.4662 C.3       10 UNK        -0.1985 
     62 C          33.1328    2.6815   -8.9340 C.2       10 UNK         0.4970 
     63 O          34.2135    3.2638   -9.0488 O.2       10 UNK        -0.4914 
     64 N          32.7323    2.0723   -7.8137 N.am      11 UNK        -0.4285 
     65 CA         33.4658    2.0489   -6.5436 C.3       11 UNK         0.1007 
     66 C          33.2415    3.3506   -5.7300 C.2       11 UNK         0.5703 
     67 N          34.2052    3.7358   -4.9041 N.am      11 UNK        -0.7361 
     68 O          32.1977    3.9961   -5.8102 O.2       11 UNK        -0.4986 
     69 C69        33.0974    0.7958   -5.7072 C.3       12 UNK        -0.0947 
     70 S70        33.5760   -0.7398   -6.5625 S.3       12 UNK        -0.2240 
     71 C71        33.5303   -1.9554   -5.2115 C.3       12 UNK         0.0194 
     72 H72        25.4926   -3.8739    2.9634 H         1 UNK         0.0906 
     73 H73        24.4602   -3.7930    1.5196 H         1 UNK         0.0906 
     74 H74        24.3682   -5.1765    2.6060 H         1 UNK         0.0906 
     75 H75        27.8689   -5.0157    0.3274 H         1 UNK         0.3140 
     76 H76        27.2488   -2.7696    1.9953 H         1 UNK         0.1085 
     77 H77        29.5266   -3.1035    1.5613 H         1 UNK         0.0836 
     78 H78        29.1178   -1.6642    0.6907 H         1 UNK         0.0836 
     79 H79        28.6551   -1.7688   -2.0917 H         1 UNK         0.0731 
     80 H80        30.2235   -1.2933   -1.4828 H         1 UNK         0.0731 
     81 H81        32.1192   -1.4290   -2.9312 H         1 UNK         0.1312 
     82 H82        31.7976   -3.4127   -6.7116 H         1 UNK         0.1406 
     83 H83        28.6308   -3.7207   -3.8279 H         1 UNK         0.1631 
     84 H84        29.9278   -5.3274   -6.6930 H         1 UNK         0.0717 
     85 H85        29.3075   -3.8804   -7.4132 H         1 UNK         0.0717 
     86 H86        25.6156   -3.9893   -5.5227 H         1 UNK         0.0934 
     87 H87        26.8871   -3.1149   -4.7739 H         1 UNK         0.0934 
     88 H88        26.2446   -2.9547   -7.7698 H         1 UNK         0.0739 
     89 H89        24.8530   -1.7561   -5.5839 H         1 UNK         0.3093 
     90 H90        23.5537    1.1034   -7.1983 H         1 UNK         0.0818 
     91 H91        21.4215    0.0695   -6.4701 H         1 UNK         0.0819 
     92 H92        22.0450   -0.7691   -7.8799 H         1 UNK         0.0819 
     93 H93        22.2054   -1.5004   -6.2892 H         1 UNK         0.0819 
     94 H94        23.1877    0.0469   -4.5724 H         1 UNK         0.3041 
     95 H95        26.0093    1.6212   -3.0546 H         1 UNK         0.0784 
     96 H96        24.3242    3.4548   -3.2712 H         1 UNK         0.0793 
     97 H97        23.0285    2.3276   -2.8952 H         1 UNK         0.0793 
     98 H98        24.2558    2.7062   -1.6854 H         1 UNK         0.0793 
     99 H99        23.8620    0.1911   -1.8959 H         1 UNK         0.3024 
    100 H100       24.0788   -1.7907   -1.0699 H         1 UNK         0.1171 
    101 H101       23.4480   -2.8119   -3.3019 H         1 UNK         0.0786 
    102 H102       23.7056   -4.0027   -2.0392 H         1 UNK         0.0786 
    103 H103       24.9417   -3.7430   -3.2636 H         1 UNK         0.0786 
    104 H104       26.1344   -3.7399   -1.1437 H         1 UNK         0.2977 
    105 H105       27.3294   -0.7895   -5.0892 H         1 UNK         0.3127 
    106 H106       29.9453   -0.3655   -5.9787 H         1 UNK         0.0770 
    107 H107       28.1421    1.5152   -4.3610 H         1 UNK         0.0814 
    108 H108       29.8924    1.6269   -4.4695 H         1 UNK         0.0814 
    109 H109       29.1518    0.2308   -3.7027 H         1 UNK         0.0814 
    110 H110       27.0041    1.5733   -6.7361 H         1 UNK         0.2983 
    111 H111       28.2621    3.5084   -8.3681 H         1 UNK         0.0947 
    112 H112       25.9396    3.9296   -9.2106 H         1 UNK         0.0806 
    113 H113       25.9797    3.7968   -7.4595 H         1 UNK         0.0806 
    114 H114       25.3838    2.4535   -8.4313 H         1 UNK         0.0806 
    115 H115       26.7329    0.3717   -9.2953 H         1 UNK         0.3000 
    116 H116       27.1841    0.6219  -12.0930 H         1 UNK         0.0850 
    117 H117       26.7177   -1.8417  -12.1139 H         1 UNK         0.0810 
    118 H118       25.5393   -0.9650  -11.1500 H         1 UNK         0.0810 
    119 H119       26.8198   -1.8794  -10.3576 H         1 UNK         0.0810 
    120 H120       29.1726   -0.8553   -9.5073 H         1 UNK         0.3040 
    121 H121       31.2939   -1.7136  -11.2837 H         1 UNK         0.0766 
    122 H122       32.4460   -2.2161   -9.1123 H         1 UNK         0.0812 
    123 H123       30.8146   -2.8676   -9.1525 H         1 UNK         0.0812 
    124 H124       31.1529   -1.3967   -8.2423 H         1 UNK         0.0812 
    125 H125       30.4876    1.3433   -9.9856 H         1 UNK         0.3205 
    126 H126       31.3677    3.3508   -9.8960 H         1 UNK         0.0754 
    127 H127       33.1658    4.0624  -11.4197 H         1 UNK         0.0769 
    128 H128       32.0618    3.0003  -12.2777 H         1 UNK         0.0769 
    129 H129       33.6273    2.3971  -11.7340 H         1 UNK         0.0769 
    130 H130       31.7843    1.7002   -7.7820 H         1 UNK         0.2981 
    131 H131       34.5317    1.9927   -6.7751 H         1 UNK         0.0541 
    132 H132       35.0621    3.2114   -4.8207 H         1 UNK         0.3459 
    133 H133       34.0749    4.5720   -4.3563 H         1 UNK         0.3459 
    134 H134       32.0277    0.7654   -5.4980 H         1 UNK         0.0612 
    135 H135       33.6034    0.8192   -4.7403 H         1 UNK         0.0612 
    136 H136       34.0948   -2.8357   -5.5218 H         1 UNK         0.0624 
    137 H137       34.0508   -1.5541   -4.3407 H         1 UNK         0.0624 
@<TRIPOS>BOND
     1    1    2 1    
     2    1   72 1    
     3    1   73 1    
     4    1   74 1    
     5    2    3 2    
     6    2    4 am   BACKBONE|DICT|INTERRES
     7    4    5 1    
     8    4   75 1    
     9    5    6 1    
    10    5   35 1    
    11    5   76 1    
    12    6    7 1    
    13    6   77 1    
    14    6   78 1    
    15    7    8 1    
    16    8    9 1    
    17    8   79 1    
    18    8   80 1    
    19    9   10 ar   
    20    9   14 ar   
    21   10   11 ar   
    22   10   81 1    
    23   11   12 ar   
    24   11   71 1    
    25   12   13 ar   
    26   12   82 1    
    27   13   14 ar   
    28   13   15 1    
    29   14   83 1    
    30   15   16 1    
    31   15   84 1    
    32   15   85 1    
    33   16   17 1    
    34   17   18 1    
    35   17   86 1    
    36   17   87 1    
    37   18   19 1    
    38   18   37 1    
    39   18   88 1    
    40   19   20 am   BACKBONE|DICT|INTERRES
    41   19   89 1    
    42   20   21 2    
    43   20   22 1    
    44   22   23 1    
    45   22   24 1    
    46   22   90 1    
    47   23   91 1    
    48   23   92 1    
    49   23   93 1    
    50   24   25 am   BACKBONE|DICT|INTERRES
    51   24   94 1    
    52   25   26 2    
    53   25   27 1    
    54   27   28 1    
    55   27   29 1    
    56   27   95 1    
    57   28   96 1    
    58   28   97 1    
    59   28   98 1    
    60   29   30 am   BACKBONE|DICT|INTERRES
    61   29   99 1    
    62   30   31 2    
    63   30   32 1    
    64   32   33 1    
    65   32   34 1    
    66   32  100 1    
    67   33  101 1    
    68   33  102 1    
    69   33  103 1    
    70   34   35 am   BACKBONE|DICT|INTERRES
    71   34  104 1    
    72   35   36 2    
    73   37   38 2    
    74   37   39 am   BACKBONE|DICT|INTERRES
    75   39   40 1    
    76   39  105 1    
    77   40   41 1    
    78   40   42 1    
    79   40  106 1    
    80   41  107 1    
    81   41  108 1    
    82   41  109 1    
    83   42   43 2    
    84   42   44 am   BACKBONE|DICT|INTERRES
    85   44   45 1    
    86   44  110 1    
    87   45   46 1    
    88   45   47 1    
    89   45  111 1    
    90   46  112 1    
    91   46  113 1    
    92   46  114 1    
    93   47   48 2    
    94   47   49 am   BACKBONE|DICT|INTERRES
    95   49   50 1    
    96   49  115 1    
    97   50   51 1    
    98   50   52 1    
    99   50  116 1    
   100   51  117 1    
   101   51  118 1    
   102   51  119 1    
   103   52   53 2    
   104   52   54 am   BACKBONE|DICT|INTERRES
   105   54   55 1    
   106   54  120 1    
   107   55   56 1    
   108   55   57 1    
   109   55  121 1    
   110   56  122 1    
   111   56  123 1    
   112   56  124 1    
   113   57   58 2    
   114   57   59 am   BACKBONE|DICT|INTERRES
   115   59   60 1    
   116   59  125 1    
   117   60   61 1    
   118   60   62 1    
   119   60  126 1    
   120   61  127 1    
   121   61  128 1    
   122   61  129 1    
   123   62   63 2    
   124   62   64 am   BACKBONE|DICT|INTERRES
   125   64   65 1    
   126   64  130 1    
   127   65   66 1    
   128   65   69 1    
   129   65  131 1    
   130   66   67 am   BACKBONE|DICT|INTERRES
   131   66   68 2    
   132   67  132 1    
   133   67  133 1    
   134   69   70 1    
   135   69  134 1    
   136   69  135 1    
   137   70   71 1    
   138   71  136 1    
   139   71  137 1    
@<TRIPOS>SUBSTRUCTURE
     1 UNK         1 GROUP             0       ****    0 ROOT    
