@<TRIPOS>MOLECULE
3R137
137   139    1
SMALL
USER_CHARGES


@<TRIPOS>ATOM
      1 CA         25.5633   -7.7470   -4.3937 C.3       0 UNK        -0.2020 
      2 C          25.6638   -6.7646   -3.2362 C.2       0 UNK         0.4855 
      3 O          24.9342   -6.8998   -2.2529 O.2       0 UNK        -0.5197 
      4 N          26.5694   -5.7846   -3.3417 N.am      1 UNK        -0.4892 
      5 CA         26.7741   -4.7166   -2.3539 C.3       1 UNK         0.0835 
      6 C6         28.1459   -4.0094   -2.5292 C.3       12 UNK        -0.0855 
      7 S7         29.5440   -5.1731   -2.7249 S.3       12 UNK        -0.2931 
      8 C8         30.9300   -4.2666   -1.9643 C.3       12 UNK         0.0378 
      9 C9         31.0825   -2.8565   -2.5201 C.ar      12 UNK        -0.0802 
     10 C10        31.3723   -2.6492   -3.8730 C.ar      12 UNK        -0.0944 
     11 C11        31.4839   -1.3542   -4.3896 C.ar      12 UNK        -0.0787 
     12 C12        31.3344   -0.2642   -3.5243 C.ar      12 UNK        -0.0862 
     13 C13        31.0189   -0.4555   -2.1762 C.ar      12 UNK        -0.0733 
     14 C14        30.9063   -1.7554   -1.6785 C.ar      12 UNK        -0.0832 
     15 C15        30.7649    0.7322   -1.2540 C.3       12 UNK         0.0240 
     16 S16        29.6496    1.9909   -1.9677 S.3       12 UNK        -0.2522 
     17 C17        28.2168    1.0092   -2.5428 C.3       12 UNK        -0.0967 
     18 CA         28.0966    0.9875   -4.0908 C.3       5 UNK         0.0660 
     19 N          27.2288   -0.0914   -4.5696 N.am      5 UNK        -0.4015 
     20 C          27.2193   -0.5530   -5.8321 C.2       4 UNK         0.4946 
     21 O          28.0193   -0.1948   -6.6971 O.2       4 UNK        -0.5353 
     22 CA         26.1042   -1.5407   -6.2288 C.3       4 UNK         0.0277 
     23 CB         26.6104   -2.9905   -6.2120 C.3       4 UNK        -0.1981 
     24 N          24.9000   -1.4210   -5.4014 N.am      4 UNK        -0.4209 
     25 C          24.1058   -0.3390   -5.4000 C.2       3 UNK         0.4942 
     26 O          24.2698    0.6167   -6.1579 O.2       3 UNK        -0.5208 
     27 CA         22.9823   -0.2647   -4.3490 C.3       3 UNK         0.0250 
     28 CB         21.6444   -0.6997   -4.9665 C.3       3 UNK        -0.1990 
     29 N          23.2309   -1.0442   -3.1317 N.am      3 UNK        -0.4232 
     30 C          24.2860   -0.9127   -2.3142 C.2       2 UNK         0.4993 
     31 O          25.1884   -0.0939   -2.4942 O.2       2 UNK        -0.5286 
     32 CA         24.3935   -1.9004   -1.1345 C.3       2 UNK         0.0209 
     33 CB         23.0603   -2.6013   -0.7861 C.3       2 UNK        -0.1931 
     34 N          25.4494   -2.9061   -1.3362 N.am      2 UNK        -0.4546 
     35 C          25.6138   -3.6960   -2.4098 C.2       1 UNK         0.5154 
     36 O          24.9098   -3.6242   -3.4228 O.2       1 UNK        -0.5181 
     37 C          27.6348    2.3478   -4.6472 C.2       5 UNK         0.5014 
     38 O          28.4692    3.1241   -5.1122 O.2       5 UNK        -0.5248 
     39 N          26.3159    2.5979   -4.6298 N.am      6 UNK        -0.4434 
     40 CA         25.6958    3.8076   -5.1815 C.3       6 UNK         0.0363 
     41 CB         24.2123    3.8631   -4.7821 C.3       6 UNK        -0.1936 
     42 C          25.8606    3.9146   -6.7080 C.2       6 UNK         0.5081 
     43 O          26.1187    5.0058   -7.2161 O.2       6 UNK        -0.5248 
     44 N          25.7467    2.7756   -7.4046 N.am      7 UNK        -0.4718 
     45 CA         26.0184    2.6438   -8.8388 C.3       7 UNK         0.0273 
     46 CB         25.4030    1.3270   -9.3397 C.3       7 UNK        -0.1935 
     47 C          27.5189    2.6910   -9.1894 C.2       7 UNK         0.5018 
     48 O          27.8482    2.9392  -10.3498 O.2       7 UNK        -0.5186 
     49 N          28.3854    2.4296   -8.1979 N.am      8 UNK        -0.4240 
     50 CA         29.8432    2.2802   -8.2833 C.3       8 UNK         0.0235 
     51 CB         30.5189    3.6293   -8.6035 C.3       8 UNK        -0.2000 
     52 C          30.2581    1.1488   -9.2443 C.2       8 UNK         0.4941 
     53 O          31.1568    1.3317  -10.0697 O.2       8 UNK        -0.5273 
     54 N          29.5671    0.0051   -9.1355 N.am      9 UNK        -0.4262 
     55 CA         29.7127   -1.1586  -10.0101 C.3       9 UNK         0.0264 
     56 CB         28.6131   -2.1790   -9.6774 C.3       9 UNK        -0.1955 
     57 C          31.1093   -1.7858   -9.8830 C.2       9 UNK         0.5031 
     58 O          31.4305   -2.3392   -8.8313 O.2       9 UNK        -0.5390 
     59 N          31.9234   -1.6501  -10.9379 N.am      10 UNK        -0.4204 
     60 CA         33.3253   -2.0756  -11.0777 C.3       10 UNK         0.0237 
     61 CB         33.4862   -3.5970  -10.8850 C.3       10 UNK        -0.1985 
     62 C          34.3297   -1.2946  -10.2068 C.2       10 UNK         0.4970 
     63 O          35.4387   -1.0368  -10.6769 O.2       10 UNK        -0.4914 
     64 N          33.9443   -0.9222   -8.9803 N.am      11 UNK        -0.4285 
     65 CA         34.7366   -0.0842   -8.0671 C.3       11 UNK         0.1007 
     66 C          34.9131    1.3948   -8.5244 C.2       11 UNK         0.5703 
     67 N          34.0542    1.9379   -9.3805 N.am      11 UNK        -0.7361 
     68 O          35.8608    2.0549   -8.1045 O.2       11 UNK        -0.4986 
     69 C69        34.2384   -0.1865   -6.5998 C.3       12 UNK        -0.0947 
     70 S70        32.5140    0.3709   -6.3848 S.3       12 UNK        -0.2240 
     71 C71        31.6592   -1.1655   -5.8951 C.3       12 UNK         0.0194 
     72 H72        24.5609   -7.7216   -4.8201 H         1 UNK         0.0906 
     73 H73        26.2747   -7.5174   -5.1868 H         1 UNK         0.0906 
     74 H74        25.7603   -8.7603   -4.0446 H         1 UNK         0.0906 
     75 H75        27.1479   -5.7254   -4.1668 H         1 UNK         0.3140 
     76 H76        26.7572   -5.1796   -1.3645 H         1 UNK         0.1085 
     77 H77        28.3407   -3.3707   -1.6658 H         1 UNK         0.0836 
     78 H78        28.1493   -3.3449   -3.3939 H         1 UNK         0.0836 
     79 H79        31.8534   -4.8208   -2.1382 H         1 UNK         0.0731 
     80 H80        30.7843   -4.2470   -0.8831 H         1 UNK         0.0731 
     81 H81        31.4738   -3.5018   -4.5309 H         1 UNK         0.1312 
     82 H82        31.4043    0.7445   -3.9058 H         1 UNK         0.1406 
     83 H83        30.6646   -1.9107   -0.6356 H         1 UNK         0.1631 
     84 H84        31.7192    1.2029   -1.0145 H         1 UNK         0.0717 
     85 H85        30.3383    0.3997   -0.3064 H         1 UNK         0.0717 
     86 H86        28.3050   -0.0085   -2.1599 H         1 UNK         0.0934 
     87 H87        27.3142    1.4145   -2.0820 H         1 UNK         0.0934 
     88 H88        29.0853    0.7976   -4.5092 H         1 UNK         0.0739 
     89 H89        26.5039   -0.3908   -3.9247 H         1 UNK         0.3093 
     90 H90        25.8228   -1.3046   -7.2566 H         1 UNK         0.0818 
     91 H91        27.5172   -3.1007   -6.8052 H         1 UNK         0.0819 
     92 H92        25.8671   -3.6733   -6.6235 H         1 UNK         0.0819 
     93 H93        26.8456   -3.3249   -5.2057 H         1 UNK         0.0819 
     94 H94        24.7201   -2.1710   -4.7379 H         1 UNK         0.3041 
     95 H95        22.8954    0.7813   -4.0486 H         1 UNK         0.0784 
     96 H96        21.4197   -0.1170   -5.8613 H         1 UNK         0.0793 
     97 H97        21.6570   -1.7511   -5.2569 H         1 UNK         0.0793 
     98 H98        20.8181   -0.5516   -4.2710 H         1 UNK         0.0793 
     99 H99        22.5690   -1.7784   -2.9261 H         1 UNK         0.3024 
    100 H100       24.6868   -1.3000   -0.2714 H         1 UNK         0.1171 
    101 H101       23.1561   -3.1811    0.1321 H         1 UNK         0.0786 
    102 H102       22.2619   -1.8765   -0.6199 H         1 UNK         0.0786 
    103 H103       22.7341   -3.2871   -1.5692 H         1 UNK         0.0786 
    104 H104       26.1000   -3.0033   -0.5687 H         1 UNK         0.2977 
    105 H105       25.6944    1.9009   -4.2442 H         1 UNK         0.3127 
    106 H106       26.1985    4.6686   -4.7354 H         1 UNK         0.0770 
    107 H107       23.6443    3.0351   -5.2064 H         1 UNK         0.0814 
    108 H108       23.7510    4.7859   -5.1364 H         1 UNK         0.0814 
    109 H109       24.0899    3.8359   -3.6993 H         1 UNK         0.0814 
    110 H110       25.4312    1.9400   -6.9171 H         1 UNK         0.2983 
    111 H111       25.5325    3.4724   -9.3587 H         1 UNK         0.0947 
    112 H112       25.5242    1.2246  -10.4190 H         1 UNK         0.0806 
    113 H113       24.3349    1.2793   -9.1263 H         1 UNK         0.0806 
    114 H114       25.8770    0.4618   -8.8758 H         1 UNK         0.0806 
    115 H115       27.9931    2.2306   -7.2872 H         1 UNK         0.3000 
    116 H116       30.1700    1.9748   -7.2885 H         1 UNK         0.0850 
    117 H117       31.6045    3.5425   -8.5452 H         1 UNK         0.0810 
    118 H118       30.2168    4.3998   -7.8942 H         1 UNK         0.0810 
    119 H119       30.2725    3.9782   -9.6067 H         1 UNK         0.0810 
    120 H120       28.9097   -0.0804   -8.3626 H         1 UNK         0.3040 
    121 H121       29.5618   -0.8224  -11.0379 H         1 UNK         0.0766 
    122 H122       27.6188   -1.7419   -9.7720 H         1 UNK         0.0812 
    123 H123       28.7194   -2.5566   -8.6610 H         1 UNK         0.0812 
    124 H124       28.6596   -3.0363  -10.3499 H         1 UNK         0.0812 
    125 H125       31.5688   -1.1178  -11.7213 H         1 UNK         0.3205 
    126 H126       33.5875   -1.8543  -12.1136 H         1 UNK         0.0754 
    127 H127       34.5050   -3.9110  -11.1158 H         1 UNK         0.0769 
    128 H128       32.8188   -4.1531  -11.5434 H         1 UNK         0.0769 
    129 H129       33.2799   -3.9051   -9.8596 H         1 UNK         0.0769 
    130 H130       33.0226   -1.2040   -8.6622 H         1 UNK         0.2981 
    131 H131       35.7445   -0.5037   -8.0722 H         1 UNK         0.0541 
    132 H132       34.1946    2.8911   -9.6728 H         1 UNK         0.3459 
    133 H133       33.2281    1.4379   -9.6857 H         1 UNK         0.3459 
    134 H134       34.3383   -1.2142   -6.2484 H         1 UNK         0.0612 
    135 H135       34.8724    0.4072   -5.9391 H         1 UNK         0.0612 
    136 H136       30.6659   -1.1520   -6.3458 H         1 UNK         0.0624 
    137 H137       32.1759   -2.0239   -6.3255 H         1 UNK         0.0624 
@<TRIPOS>BOND
     1    1    2 1    
     2    1   72 1    
     3    1   73 1    
     4    1   74 1    
     5    2    3 2    
     6    2    4 am   BACKBONE|DICT|INTERRES
     7    4    5 1    
     8    4   75 1    
     9    5    6 1    
    10    5   35 1    
    11    5   76 1    
    12    6    7 1    
    13    6   77 1    
    14    6   78 1    
    15    7    8 1    
    16    8    9 1    
    17    8   79 1    
    18    8   80 1    
    19    9   10 ar   
    20    9   14 ar   
    21   10   11 ar   
    22   10   81 1    
    23   11   12 ar   
    24   11   71 1    
    25   12   13 ar   
    26   12   82 1    
    27   13   14 ar   
    28   13   15 1    
    29   14   83 1    
    30   15   16 1    
    31   15   84 1    
    32   15   85 1    
    33   16   17 1    
    34   17   18 1    
    35   17   86 1    
    36   17   87 1    
    37   18   19 1    
    38   18   37 1    
    39   18   88 1    
    40   19   20 am   BACKBONE|DICT|INTERRES
    41   19   89 1    
    42   20   21 2    
    43   20   22 1    
    44   22   23 1    
    45   22   24 1    
    46   22   90 1    
    47   23   91 1    
    48   23   92 1    
    49   23   93 1    
    50   24   25 am   BACKBONE|DICT|INTERRES
    51   24   94 1    
    52   25   26 2    
    53   25   27 1    
    54   27   28 1    
    55   27   29 1    
    56   27   95 1    
    57   28   96 1    
    58   28   97 1    
    59   28   98 1    
    60   29   30 am   BACKBONE|DICT|INTERRES
    61   29   99 1    
    62   30   31 2    
    63   30   32 1    
    64   32   33 1    
    65   32   34 1    
    66   32  100 1    
    67   33  101 1    
    68   33  102 1    
    69   33  103 1    
    70   34   35 am   BACKBONE|DICT|INTERRES
    71   34  104 1    
    72   35   36 2    
    73   37   38 2    
    74   37   39 am   BACKBONE|DICT|INTERRES
    75   39   40 1    
    76   39  105 1    
    77   40   41 1    
    78   40   42 1    
    79   40  106 1    
    80   41  107 1    
    81   41  108 1    
    82   41  109 1    
    83   42   43 2    
    84   42   44 am   BACKBONE|DICT|INTERRES
    85   44   45 1    
    86   44  110 1    
    87   45   46 1    
    88   45   47 1    
    89   45  111 1    
    90   46  112 1    
    91   46  113 1    
    92   46  114 1    
    93   47   48 2    
    94   47   49 am   BACKBONE|DICT|INTERRES
    95   49   50 1    
    96   49  115 1    
    97   50   51 1    
    98   50   52 1    
    99   50  116 1    
   100   51  117 1    
   101   51  118 1    
   102   51  119 1    
   103   52   53 2    
   104   52   54 am   BACKBONE|DICT|INTERRES
   105   54   55 1    
   106   54  120 1    
   107   55   56 1    
   108   55   57 1    
   109   55  121 1    
   110   56  122 1    
   111   56  123 1    
   112   56  124 1    
   113   57   58 2    
   114   57   59 am   BACKBONE|DICT|INTERRES
   115   59   60 1    
   116   59  125 1    
   117   60   61 1    
   118   60   62 1    
   119   60  126 1    
   120   61  127 1    
   121   61  128 1    
   122   61  129 1    
   123   62   63 2    
   124   62   64 am   BACKBONE|DICT|INTERRES
   125   64   65 1    
   126   64  130 1    
   127   65   66 1    
   128   65   69 1    
   129   65  131 1    
   130   66   67 am   BACKBONE|DICT|INTERRES
   131   66   68 2    
   132   67  132 1    
   133   67  133 1    
   134   69   70 1    
   135   69  134 1    
   136   69  135 1    
   137   70   71 1    
   138   71  136 1    
   139   71  137 1    
@<TRIPOS>SUBSTRUCTURE
     1 UNK         1 GROUP             0       ****    0 ROOT    
