@<TRIPOS>MOLECULE
3R137
137   139    1
SMALL
USER_CHARGES


@<TRIPOS>ATOM
      1 CA         25.6100   -4.2358   -3.3423 C.3       0 UNK        -0.2020 
      2 C          26.4276   -3.1169   -2.7156 C.2       0 UNK         0.4855 
      3 O          26.6477   -2.0884   -3.3616 O.2       0 UNK        -0.5197 
      4 N          26.8585   -3.3222   -1.4608 N.am      1 UNK        -0.4892 
      5 CA         27.6475   -2.4071   -0.6241 C.3       1 UNK         0.0835 
      6 C6         29.1060   -2.2223   -1.1360 C.3       12 UNK        -0.0855 
      7 S7         30.2079   -3.5491   -0.5429 S.3       12 UNK        -0.2931 
      8 C8         29.9146   -4.8960   -1.7404 C.3       12 UNK         0.0378 
      9 C9         30.2844   -4.5805   -3.1886 C.ar      12 UNK        -0.0802 
     10 C10        31.3314   -3.7116   -3.5178 C.ar      12 UNK        -0.0944 
     11 C11        31.6674   -3.4701   -4.8530 C.ar      12 UNK        -0.0787 
     12 C12        30.9616   -4.1208   -5.8694 C.ar      12 UNK        -0.0862 
     13 C13        29.9230   -5.0039   -5.5552 C.ar      12 UNK        -0.0733 
     14 C14        29.5871   -5.2220   -4.2161 C.ar      12 UNK        -0.0832 
     15 C15        29.1876   -5.7604   -6.6534 C.3       12 UNK         0.0240 
     16 S16        28.2908   -4.6632   -7.7918 S.3       12 UNK        -0.2522 
     17 C17        27.0369   -3.9074   -6.7010 C.3       12 UNK        -0.0967 
     18 CA         26.4769   -2.6124   -7.3347 C.3       5 UNK         0.0660 
     19 N          25.1537   -2.2344   -6.8353 N.am      5 UNK        -0.4015 
     20 C          24.3106   -1.4448   -7.5188 C.2       4 UNK         0.4946 
     21 O          24.5322   -1.0276   -8.6562 O.2       4 UNK        -0.5353 
     22 CA         22.9959   -1.0357   -6.8317 C.3       4 UNK         0.0277 
     23 CB         21.8780   -2.0301   -7.1858 C.3       4 UNK        -0.1981 
     24 N          23.0617   -0.8812   -5.3744 N.am      4 UNK        -0.4209 
     25 C          23.9023   -0.0796   -4.7056 C.2       3 UNK         0.4942 
     26 O          24.8189    0.5465   -5.2408 O.2       3 UNK        -0.5208 
     27 CA         23.6678    0.0649   -3.1942 C.3       3 UNK         0.0250 
     28 CB         22.9809   -1.1549   -2.5448 C.3       3 UNK        -0.1990 
     29 N          24.9466    0.3005   -2.5328 N.am      3 UNK        -0.4232 
     30 C          25.2059    1.2785   -1.6556 C.2       2 UNK         0.4993 
     31 O          24.3774    2.1222   -1.3071 O.2       2 UNK        -0.5286 
     32 CA         26.6324    1.3181   -1.0640 C.3       2 UNK         0.0209 
     33 CB         26.6835    1.9843    0.3284 C.3       2 UNK        -0.1931 
     34 N          27.2875    0.0008   -1.0389 N.am      2 UNK        -0.4546 
     35 C          26.8658   -1.0978   -0.3921 C.2       1 UNK         0.5154 
     36 O          25.8792   -1.1258    0.3462 O.2       1 UNK        -0.5181 
     37 C          27.4561   -1.4320   -7.2245 C.2       5 UNK         0.5014 
     38 O          28.0049   -1.0209   -8.2449 O.2       5 UNK        -0.5248 
     39 N          27.6245   -0.8692   -6.0179 N.am      6 UNK        -0.4434 
     40 CA         28.5175    0.2687   -5.7568 C.3       6 UNK         0.0363 
     41 CB         28.5513    0.5523   -4.2511 C.3       6 UNK        -0.1936 
     42 C          28.1715    1.5499   -6.5402 C.2       6 UNK         0.5081 
     43 O          29.0583    2.3651   -6.7863 O.2       6 UNK        -0.5248 
     44 N          26.9034    1.6998   -6.9425 N.am      7 UNK        -0.4718 
     45 CA         26.4337    2.7525   -7.8445 C.3       7 UNK         0.0273 
     46 CB         24.8963    2.7584   -7.8413 C.3       7 UNK        -0.1935 
     47 C          26.9661    2.6269   -9.2877 C.2       7 UNK         0.5018 
     48 O          26.9808    3.6337   -9.9978 O.2       7 UNK        -0.5186 
     49 N          27.3681    1.4175   -9.7048 N.am      8 UNK        -0.4240 
     50 CA         27.8560    1.1122  -11.0526 C.3       8 UNK         0.0235 
     51 CB         27.0136   -0.0341  -11.6373 C.3       8 UNK        -0.2000 
     52 C          29.3465    0.7355  -11.0650 C.2       8 UNK         0.4941 
     53 O          30.0513    1.1115  -12.0034 O.2       8 UNK        -0.5273 
     54 N          29.7959   -0.0183  -10.0535 N.am      9 UNK        -0.4262 
     55 CA         31.1662   -0.5044   -9.8910 C.3       9 UNK         0.0264 
     56 CB         31.1781   -1.5807   -8.7905 C.3       9 UNK        -0.1955 
     57 C          32.1633    0.6165   -9.5543 C.2       9 UNK         0.5031 
     58 O          31.7733    1.6796   -9.0654 O.2       9 UNK        -0.5390 
     59 N          33.4539    0.3263   -9.7716 N.am      10 UNK        -0.4204 
     60 CA         34.5871    1.2280   -9.5258 C.3       10 UNK         0.0237 
     61 CB         35.8795    0.5567  -10.0194 C.3       10 UNK        -0.1985 
     62 C          34.7467    1.6890   -8.0635 C.2       10 UNK         0.4970 
     63 O          35.3726    2.7243   -7.8315 O.2       10 UNK        -0.4914 
     64 N          34.1790    0.9338   -7.1139 N.am      11 UNK        -0.4285 
     65 CA         34.0691    1.3164   -5.7000 C.3       11 UNK         0.1007 
     66 C          33.0537    2.4631   -5.4084 C.2       11 UNK         0.5703 
     67 N          32.1983    2.8551   -6.3453 N.am      11 UNK        -0.7361 
     68 O          33.0551    3.0155   -4.3106 O.2       11 UNK        -0.4986 
     69 C69        33.8400    0.0803   -4.7912 C.3       12 UNK        -0.0947 
     70 S70        32.2607   -0.7902   -5.0907 S.3       12 UNK        -0.2240 
     71 C71        32.8093   -2.5209   -5.1798 C.3       12 UNK         0.0194 
     72 H72        25.0959   -4.8267   -2.5846 H         1 UNK         0.0906 
     73 H73        24.8557   -3.8300   -4.0147 H         1 UNK         0.0906 
     74 H74        26.2569   -4.9016   -3.9117 H         1 UNK         0.0906 
     75 H75        26.5895   -4.1781   -0.9959 H         1 UNK         0.3140 
     76 H76        27.6980   -2.8659    0.3652 H         1 UNK         0.1085 
     77 H77        29.5479   -1.2995   -0.7563 H         1 UNK         0.0836 
     78 H78        29.1508   -2.1558   -2.2236 H         1 UNK         0.0836 
     79 H79        30.4971   -5.7624   -1.4249 H         1 UNK         0.0731 
     80 H80        28.8685   -5.1956   -1.6741 H         1 UNK         0.0731 
     81 H81        31.8926   -3.2177   -2.7370 H         1 UNK         0.1312 
     82 H82        31.2232   -3.9491   -6.9044 H         1 UNK         0.1406 
     83 H83        28.7920   -5.9131   -3.9706 H         1 UNK         0.1631 
     84 H84        28.4845   -6.4811   -6.2329 H         1 UNK         0.0717 
     85 H85        29.9123   -6.3404   -7.2264 H         1 UNK         0.0717 
     86 H86        26.2394   -4.6391   -6.5637 H         1 UNK         0.0934 
     87 H87        27.4577   -3.7164   -5.7126 H         1 UNK         0.0934 
     88 H88        26.3513   -2.8146   -8.4017 H         1 UNK         0.0739 
     89 H89        24.9101   -2.5093   -5.8966 H         1 UNK         0.3093 
     90 H90        22.7207   -0.0601   -7.2381 H         1 UNK         0.0818 
     91 H91        20.9096   -1.6878   -6.8203 H         1 UNK         0.0819 
     92 H92        21.7881   -2.1485   -8.2668 H         1 UNK         0.0819 
     93 H93        22.0673   -3.0184   -6.7649 H         1 UNK         0.0819 
     94 H94        22.3449   -1.3559   -4.8447 H         1 UNK         0.3041 
     95 H95        23.0172    0.9328   -3.0703 H         1 UNK         0.0784 
     96 H96        21.9597   -1.2821   -2.9054 H         1 UNK         0.0793 
     97 H97        23.5243   -2.0796   -2.7385 H         1 UNK         0.0793 
     98 H98        22.9175   -1.0351   -1.4628 H         1 UNK         0.0793 
     99 H99        25.6921   -0.3373   -2.7934 H         1 UNK         0.3024 
    100 H100       27.2157    1.9432   -1.7417 H         1 UNK         0.1171 
    101 H101       26.3371    3.0175    0.2811 H         1 UNK         0.0786 
    102 H102       27.6996    2.0039    0.7222 H         1 UNK         0.0786 
    103 H103       26.0530    1.4650    1.0507 H         1 UNK         0.0786 
    104 H104       28.0927   -0.0962   -1.6401 H         1 UNK         0.2977 
    105 H105       27.1356   -1.2510   -5.2148 H         1 UNK         0.3127 
    106 H106       29.5199   -0.0293   -6.0687 H         1 UNK         0.0770 
    107 H107       27.5592    0.8096   -3.8821 H         1 UNK         0.0814 
    108 H108       28.9137   -0.3146   -3.7007 H         1 UNK         0.0814 
    109 H109       29.2192    1.3846   -4.0237 H         1 UNK         0.0814 
    110 H110       26.2093    1.0427   -6.5979 H         1 UNK         0.2983 
    111 H111       26.7821    3.7105   -7.4525 H         1 UNK         0.0947 
    112 H112       24.5058    3.5542   -8.4770 H         1 UNK         0.0806 
    113 H113       24.5021    2.9217   -6.8380 H         1 UNK         0.0806 
    114 H114       24.4910    1.8156   -8.2107 H         1 UNK         0.0806 
    115 H115       27.3593    0.6466   -9.0435 H         1 UNK         0.3000 
    116 H116       27.7376    1.9800  -11.7050 H         1 UNK         0.0850 
    117 H117       27.3492   -0.2949  -12.6419 H         1 UNK         0.0810 
    118 H118       25.9622    0.2454  -11.7079 H         1 UNK         0.0810 
    119 H119       27.0768   -0.9351  -11.0251 H         1 UNK         0.0810 
    120 H120       29.1349   -0.3131   -9.3349 H         1 UNK         0.3040 
    121 H121       31.4709   -0.9629  -10.8341 H         1 UNK         0.0766 
    122 H122       32.1709   -2.0128   -8.6613 H         1 UNK         0.0812 
    123 H123       30.4996   -2.3999   -9.0304 H         1 UNK         0.0812 
    124 H124       30.8713   -1.1716   -7.8272 H         1 UNK         0.0812 
    125 H125       33.6823   -0.5768  -10.1628 H         1 UNK         0.3205 
    126 H126       34.4194    2.1264  -10.1235 H         1 UNK         0.0754 
    127 H127       36.7395    1.2140   -9.8814 H         1 UNK         0.0769 
    128 H128       35.8249    0.3206  -11.0824 H         1 UNK         0.0769 
    129 H129       36.0865   -0.3677   -9.4784 H         1 UNK         0.0769 
    130 H130       33.6677    0.1096   -7.3881 H         1 UNK         0.2981 
    131 H131       35.0407    1.7245   -5.4148 H         1 UNK         0.0541 
    132 H132       32.1528    2.3925   -7.2477 H         1 UNK         0.3459 
    133 H133       31.5285    3.5757   -6.1312 H         1 UNK         0.3459 
    134 H134       33.8709    0.3711   -3.7398 H         1 UNK         0.0612 
    135 H135       34.6689   -0.6161   -4.9247 H         1 UNK         0.0612 
    136 H136       33.6230   -2.6878   -4.4724 H         1 UNK         0.0624 
    137 H137       33.2130   -2.7217   -6.1732 H         1 UNK         0.0624 
@<TRIPOS>BOND
     1    1    2 1    
     2    1   72 1    
     3    1   73 1    
     4    1   74 1    
     5    2    3 2    
     6    2    4 am   BACKBONE|DICT|INTERRES
     7    4    5 1    
     8    4   75 1    
     9    5    6 1    
    10    5   35 1    
    11    5   76 1    
    12    6    7 1    
    13    6   77 1    
    14    6   78 1    
    15    7    8 1    
    16    8    9 1    
    17    8   79 1    
    18    8   80 1    
    19    9   10 ar   
    20    9   14 ar   
    21   10   11 ar   
    22   10   81 1    
    23   11   12 ar   
    24   11   71 1    
    25   12   13 ar   
    26   12   82 1    
    27   13   14 ar   
    28   13   15 1    
    29   14   83 1    
    30   15   16 1    
    31   15   84 1    
    32   15   85 1    
    33   16   17 1    
    34   17   18 1    
    35   17   86 1    
    36   17   87 1    
    37   18   19 1    
    38   18   37 1    
    39   18   88 1    
    40   19   20 am   BACKBONE|DICT|INTERRES
    41   19   89 1    
    42   20   21 2    
    43   20   22 1    
    44   22   23 1    
    45   22   24 1    
    46   22   90 1    
    47   23   91 1    
    48   23   92 1    
    49   23   93 1    
    50   24   25 am   BACKBONE|DICT|INTERRES
    51   24   94 1    
    52   25   26 2    
    53   25   27 1    
    54   27   28 1    
    55   27   29 1    
    56   27   95 1    
    57   28   96 1    
    58   28   97 1    
    59   28   98 1    
    60   29   30 am   BACKBONE|DICT|INTERRES
    61   29   99 1    
    62   30   31 2    
    63   30   32 1    
    64   32   33 1    
    65   32   34 1    
    66   32  100 1    
    67   33  101 1    
    68   33  102 1    
    69   33  103 1    
    70   34   35 am   BACKBONE|DICT|INTERRES
    71   34  104 1    
    72   35   36 2    
    73   37   38 2    
    74   37   39 am   BACKBONE|DICT|INTERRES
    75   39   40 1    
    76   39  105 1    
    77   40   41 1    
    78   40   42 1    
    79   40  106 1    
    80   41  107 1    
    81   41  108 1    
    82   41  109 1    
    83   42   43 2    
    84   42   44 am   BACKBONE|DICT|INTERRES
    85   44   45 1    
    86   44  110 1    
    87   45   46 1    
    88   45   47 1    
    89   45  111 1    
    90   46  112 1    
    91   46  113 1    
    92   46  114 1    
    93   47   48 2    
    94   47   49 am   BACKBONE|DICT|INTERRES
    95   49   50 1    
    96   49  115 1    
    97   50   51 1    
    98   50   52 1    
    99   50  116 1    
   100   51  117 1    
   101   51  118 1    
   102   51  119 1    
   103   52   53 2    
   104   52   54 am   BACKBONE|DICT|INTERRES
   105   54   55 1    
   106   54  120 1    
   107   55   56 1    
   108   55   57 1    
   109   55  121 1    
   110   56  122 1    
   111   56  123 1    
   112   56  124 1    
   113   57   58 2    
   114   57   59 am   BACKBONE|DICT|INTERRES
   115   59   60 1    
   116   59  125 1    
   117   60   61 1    
   118   60   62 1    
   119   60  126 1    
   120   61  127 1    
   121   61  128 1    
   122   61  129 1    
   123   62   63 2    
   124   62   64 am   BACKBONE|DICT|INTERRES
   125   64   65 1    
   126   64  130 1    
   127   65   66 1    
   128   65   69 1    
   129   65  131 1    
   130   66   67 am   BACKBONE|DICT|INTERRES
   131   66   68 2    
   132   67  132 1    
   133   67  133 1    
   134   69   70 1    
   135   69  134 1    
   136   69  135 1    
   137   70   71 1    
   138   71  136 1    
   139   71  137 1    
@<TRIPOS>SUBSTRUCTURE
     1 UNK         1 GROUP             0       ****    0 ROOT    
