@<TRIPOS>MOLECULE
3R137
137   139    1
SMALL
USER_CHARGES


@<TRIPOS>ATOM
      1 CA         29.1113    1.0651    2.1032 C.3       0 UNK        -0.2020 
      2 C          28.8192   -0.4305    2.1890 C.2       0 UNK         0.4855 
      3 O          28.6104   -0.9432    3.2864 O.2       0 UNK        -0.5197 
      4 N          28.7932   -1.1738    1.0736 N.am      1 UNK        -0.4892 
      5 CA         28.9779   -0.7134   -0.3108 C.3       1 UNK         0.0835 
      6 C6         29.4605   -1.8675   -1.2240 C.3       12 UNK        -0.0855 
      7 S7         28.3135   -3.2901   -1.3113 S.3       12 UNK        -0.2931 
      8 C8         29.4275   -4.6171   -1.8705 C.3       12 UNK         0.0378 
      9 C9         29.8428   -4.4356   -3.3238 C.ar      12 UNK        -0.0802 
     10 C10        30.9989   -3.7173   -3.6416 C.ar      12 UNK        -0.0944 
     11 C11        31.3950   -3.5481   -4.9718 C.ar      12 UNK        -0.0787 
     12 C12        30.6244   -4.1246   -5.9905 C.ar      12 UNK        -0.0862 
     13 C13        29.4652   -4.8500   -5.6875 C.ar      12 UNK        -0.0733 
     14 C14        29.0816   -5.0009   -4.3508 C.ar      12 UNK        -0.0832 
     15 C15        28.6584   -5.5155   -6.7971 C.3       12 UNK         0.0240 
     16 S16        26.9157   -4.9651   -6.8341 S.3       12 UNK        -0.2522 
     17 C17        26.7086   -4.4081   -8.5673 C.3       12 UNK        -0.0967 
     18 CA         26.4522   -2.8884   -8.7264 C.3       5 UNK         0.0660 
     19 N          25.2226   -2.4548   -8.0593 N.am      5 UNK        -0.4015 
     20 C          24.6541   -1.2513   -8.2220 C.2       4 UNK         0.4946 
     21 O          25.0719   -0.3934   -8.9996 O.2       4 UNK        -0.5353 
     22 CA         23.4458   -0.9314   -7.3274 C.3       4 UNK         0.0277 
     23 CB         22.1476   -1.4553   -7.9616 C.3       4 UNK        -0.1981 
     24 N          23.5827   -1.4591   -5.9652 N.am      4 UNK        -0.4209 
     25 C          24.5345   -1.0801   -5.1017 C.2       3 UNK         0.4942 
     26 O          25.4120   -0.2543   -5.3646 O.2       3 UNK        -0.5208 
     27 CA         24.5338   -1.7724   -3.7373 C.3       3 UNK         0.0250 
     28 CB         25.4002   -3.0438   -3.7718 C.3       3 UNK        -0.1990 
     29 N          25.0692   -0.8483   -2.7419 N.am      3 UNK        -0.4232 
     30 C          24.5729   -0.6636   -1.5146 C.2       2 UNK         0.4993 
     31 O          23.6222   -1.3007   -1.0556 O.2       2 UNK        -0.5286 
     32 CA         25.2867    0.3836   -0.6444 C.3       2 UNK         0.0209 
     33 CB         24.4727    0.7763    0.6033 C.3       2 UNK        -0.1931 
     34 N          26.5807   -0.1419   -0.2151 N.am      2 UNK        -0.4546 
     35 C          27.7283   -0.0147   -0.8937 C.2       1 UNK         0.5154 
     36 O          27.8257    0.6271   -1.9400 O.2       1 UNK        -0.5181 
     37 C          27.6687   -2.0437   -8.2996 C.2       5 UNK         0.5014 
     38 O          28.4755   -1.6752   -9.1521 O.2       5 UNK        -0.5248 
     39 N          27.7517   -1.7218   -7.0009 N.am      6 UNK        -0.4434 
     40 CA         28.8094   -0.9039   -6.4147 C.3       6 UNK         0.0363 
     41 CB         28.7607   -1.0048   -4.8852 C.3       6 UNK        -0.1936 
     42 C          28.7336    0.5575   -6.8684 C.2       6 UNK         0.5081 
     43 O          29.7734    1.1654   -7.1236 O.2       6 UNK        -0.5248 
     44 N          27.5077    1.0832   -6.9927 N.am      7 UNK        -0.4718 
     45 CA         27.2265    2.4008   -7.5599 C.3       7 UNK         0.0273 
     46 CB         25.7533    2.7650   -7.3173 C.3       7 UNK        -0.1935 
     47 C          27.5785    2.4746   -9.0551 C.2       7 UNK         0.5018 
     48 O          28.2250    3.4360   -9.4707 O.2       7 UNK        -0.5186 
     49 N          27.1793    1.4509   -9.8256 N.am      8 UNK        -0.4240 
     50 CA         27.4607    1.3265  -11.2592 C.3       8 UNK         0.0235 
     51 CB         26.6592    0.1543  -11.8476 C.3       8 UNK        -0.2000 
     52 C          28.9583    1.1728  -11.5733 C.2       8 UNK         0.4941 
     53 O          29.4538    1.8360  -12.4851 O.2       8 UNK        -0.5273 
     54 N          29.6548    0.3193  -10.8097 N.am      9 UNK        -0.4262 
     55 CA         31.0985    0.0908  -10.9264 C.3       9 UNK         0.0264 
     56 CB         31.4452   -1.2561  -10.2729 C.3       9 UNK        -0.1955 
     57 C          31.9567    1.2181  -10.3216 C.2       9 UNK         0.5031 
     58 O          33.1561    1.2608  -10.5998 O.2       9 UNK        -0.5390 
     59 N          31.3417    2.0914   -9.5094 N.am      10 UNK        -0.4204 
     60 CA         31.9466    3.1895   -8.7477 C.3       10 UNK         0.0237 
     61 CB         32.5123    4.2758   -9.6877 C.3       10 UNK        -0.1985 
     62 C          32.9654    2.6857   -7.7062 C.2       10 UNK         0.4970 
     63 O          34.0584    3.2438   -7.5889 O.2       10 UNK        -0.4914 
     64 N          32.5752    1.6389   -6.9711 N.am      11 UNK        -0.4285 
     65 CA         33.3509    1.0027   -5.8952 C.3       11 UNK         0.1007 
     66 C          32.6285    1.0233   -4.5168 C.2       11 UNK         0.5703 
     67 N          31.4294    1.5838   -4.4014 N.am      11 UNK        -0.7361 
     68 O          33.1797    0.5508   -3.5257 O.2       11 UNK        -0.4986 
     69 C69        33.8512   -0.4100   -6.3064 C.3       12 UNK        -0.0947 
     70 S70        32.5068   -1.5950   -6.6539 S.3       12 UNK        -0.2240 
     71 C71        32.6766   -2.7732   -5.2743 C.3       12 UNK         0.0194 
     72 H72        30.0984    1.2458    1.6792 H         1 UNK         0.0906 
     73 H73        28.3657    1.5799    1.4986 H         1 UNK         0.0906 
     74 H74        29.0939    1.5133    3.0965 H         1 UNK         0.0906 
     75 H75        28.6031   -2.1633    1.1589 H         1 UNK         0.3140 
     76 H76        29.7693    0.0383   -0.3186 H         1 UNK         0.1085 
     77 H77        29.6458   -1.5025   -2.2344 H         1 UNK         0.0836 
     78 H78        30.4265   -2.2224   -0.8617 H         1 UNK         0.0836 
     79 H79        30.3054   -4.6597   -1.2239 H         1 UNK         0.0731 
     80 H80        28.9183   -5.5744   -1.7495 H         1 UNK         0.0731 
     81 H81        31.5932   -3.2880   -2.8468 H         1 UNK         0.1312 
     82 H82        30.9335   -4.0125   -7.0207 H         1 UNK         0.1406 
     83 H83        28.1892   -5.5632   -4.1107 H         1 UNK         0.1631 
     84 H84        28.6765   -6.5953   -6.6441 H         1 UNK         0.0717 
     85 H85        29.1375   -5.3428   -7.7610 H         1 UNK         0.0717 
     86 H86        27.5651   -4.7065   -9.1737 H         1 UNK         0.0934 
     87 H87        25.8656   -4.9586   -8.9879 H         1 UNK         0.0934 
     88 H88        26.3075   -2.7012   -9.7928 H         1 UNK         0.0739 
     89 H89        24.8183   -3.1016   -7.3985 H         1 UNK         0.3093 
     90 H90        23.3742    0.1560   -7.2544 H         1 UNK         0.0818 
     91 H91        21.2735   -1.1516   -7.3851 H         1 UNK         0.0819 
     92 H92        22.0202   -1.0594   -8.9703 H         1 UNK         0.0819 
     93 H93        22.1406   -2.5435   -8.0356 H         1 UNK         0.0819 
     94 H94        22.9006   -2.1445   -5.6722 H         1 UNK         0.3041 
     95 H95        23.5050   -2.0416   -3.4882 H         1 UNK         0.0784 
     96 H96        25.0275   -3.7577   -4.5071 H         1 UNK         0.0793 
     97 H97        26.4376   -2.8225   -4.0251 H         1 UNK         0.0793 
     98 H98        25.3990   -3.5466   -2.8046 H         1 UNK         0.0793 
     99 H99        25.8359   -0.2677   -3.0622 H         1 UNK         0.3024 
    100 H100       25.4277    1.2832   -1.2487 H         1 UNK         0.1171 
    101 H101       23.4937    1.1670    0.3226 H         1 UNK         0.0786 
    102 H102       24.9786    1.5535    1.1765 H         1 UNK         0.0786 
    103 H103       24.3075   -0.0737    1.2667 H         1 UNK         0.0786 
    104 H104       26.5830   -0.7275    0.6081 H         1 UNK         0.2977 
    105 H105       27.0299   -2.0462   -6.3757 H         1 UNK         0.3127 
    106 H106       29.7572   -1.3133   -6.7583 H         1 UNK         0.0770 
    107 H107       27.8780   -0.5207   -4.4686 H         1 UNK         0.0814 
    108 H108       29.6336   -0.5264   -4.4427 H         1 UNK         0.0814 
    109 H109       28.7599   -2.0420   -4.5548 H         1 UNK         0.0814 
    110 H110       26.7129    0.5308   -6.6847 H         1 UNK         0.2983 
    111 H111       27.8489    3.1294   -7.0357 H         1 UNK         0.0947 
    112 H112       25.5309    3.7629   -7.6972 H         1 UNK         0.0806 
    113 H113       25.5152    2.7610   -6.2533 H         1 UNK         0.0806 
    114 H114       25.0758    2.0687   -7.8120 H         1 UNK         0.0806 
    115 H115       26.6041    0.7223   -9.4094 H         1 UNK         0.3000 
    116 H116       27.1176    2.2447  -11.7407 H         1 UNK         0.0850 
    117 H117       26.8394    0.0552  -12.9188 H         1 UNK         0.0810 
    118 H118       25.5874    0.2997  -11.7110 H         1 UNK         0.0810 
    119 H119       26.9288   -0.7936  -11.3810 H         1 UNK         0.0810 
    120 H120       29.1614   -0.2468  -10.1202 H         1 UNK         0.3040 
    121 H121       31.3528    0.0264  -11.9865 H         1 UNK         0.0766 
    122 H122       32.5146   -1.4629  -10.3313 H         1 UNK         0.0812 
    123 H123       30.9264   -2.0801  -10.7628 H         1 UNK         0.0812 
    124 H124       31.1663   -1.2680   -9.2195 H         1 UNK         0.0812 
    125 H125       30.3607    1.9315   -9.3193 H         1 UNK         0.3205 
    126 H126       31.1325    3.6420   -8.1792 H         1 UNK         0.0754 
    127 H127       32.8437    5.1470   -9.1216 H         1 UNK         0.0769 
    128 H128       31.7567    4.6178  -10.3952 H         1 UNK         0.0769 
    129 H129       33.3683    3.9153  -10.2588 H         1 UNK         0.0769 
    130 H130       31.6360    1.2728   -7.1114 H         1 UNK         0.2981 
    131 H131       34.2458    1.6015   -5.7192 H         1 UNK         0.0541 
    132 H132       30.9556    1.9546   -5.2106 H         1 UNK         0.3459 
    133 H133       30.9831    1.6082   -3.4992 H         1 UNK         0.3459 
    134 H134       34.5194   -0.8168   -5.5457 H         1 UNK         0.0612 
    135 H135       34.4571   -0.3280   -7.2098 H         1 UNK         0.0612 
    136 H136       33.4758   -3.4780   -5.5054 H         1 UNK         0.0624 
    137 H137       32.9919   -2.2234   -4.3862 H         1 UNK         0.0624 
@<TRIPOS>BOND
     1    1    2 1    
     2    1   72 1    
     3    1   73 1    
     4    1   74 1    
     5    2    3 2    
     6    2    4 am   BACKBONE|DICT|INTERRES
     7    4    5 1    
     8    4   75 1    
     9    5    6 1    
    10    5   35 1    
    11    5   76 1    
    12    6    7 1    
    13    6   77 1    
    14    6   78 1    
    15    7    8 1    
    16    8    9 1    
    17    8   79 1    
    18    8   80 1    
    19    9   10 ar   
    20    9   14 ar   
    21   10   11 ar   
    22   10   81 1    
    23   11   12 ar   
    24   11   71 1    
    25   12   13 ar   
    26   12   82 1    
    27   13   14 ar   
    28   13   15 1    
    29   14   83 1    
    30   15   16 1    
    31   15   84 1    
    32   15   85 1    
    33   16   17 1    
    34   17   18 1    
    35   17   86 1    
    36   17   87 1    
    37   18   19 1    
    38   18   37 1    
    39   18   88 1    
    40   19   20 am   BACKBONE|DICT|INTERRES
    41   19   89 1    
    42   20   21 2    
    43   20   22 1    
    44   22   23 1    
    45   22   24 1    
    46   22   90 1    
    47   23   91 1    
    48   23   92 1    
    49   23   93 1    
    50   24   25 am   BACKBONE|DICT|INTERRES
    51   24   94 1    
    52   25   26 2    
    53   25   27 1    
    54   27   28 1    
    55   27   29 1    
    56   27   95 1    
    57   28   96 1    
    58   28   97 1    
    59   28   98 1    
    60   29   30 am   BACKBONE|DICT|INTERRES
    61   29   99 1    
    62   30   31 2    
    63   30   32 1    
    64   32   33 1    
    65   32   34 1    
    66   32  100 1    
    67   33  101 1    
    68   33  102 1    
    69   33  103 1    
    70   34   35 am   BACKBONE|DICT|INTERRES
    71   34  104 1    
    72   35   36 2    
    73   37   38 2    
    74   37   39 am   BACKBONE|DICT|INTERRES
    75   39   40 1    
    76   39  105 1    
    77   40   41 1    
    78   40   42 1    
    79   40  106 1    
    80   41  107 1    
    81   41  108 1    
    82   41  109 1    
    83   42   43 2    
    84   42   44 am   BACKBONE|DICT|INTERRES
    85   44   45 1    
    86   44  110 1    
    87   45   46 1    
    88   45   47 1    
    89   45  111 1    
    90   46  112 1    
    91   46  113 1    
    92   46  114 1    
    93   47   48 2    
    94   47   49 am   BACKBONE|DICT|INTERRES
    95   49   50 1    
    96   49  115 1    
    97   50   51 1    
    98   50   52 1    
    99   50  116 1    
   100   51  117 1    
   101   51  118 1    
   102   51  119 1    
   103   52   53 2    
   104   52   54 am   BACKBONE|DICT|INTERRES
   105   54   55 1    
   106   54  120 1    
   107   55   56 1    
   108   55   57 1    
   109   55  121 1    
   110   56  122 1    
   111   56  123 1    
   112   56  124 1    
   113   57   58 2    
   114   57   59 am   BACKBONE|DICT|INTERRES
   115   59   60 1    
   116   59  125 1    
   117   60   61 1    
   118   60   62 1    
   119   60  126 1    
   120   61  127 1    
   121   61  128 1    
   122   61  129 1    
   123   62   63 2    
   124   62   64 am   BACKBONE|DICT|INTERRES
   125   64   65 1    
   126   64  130 1    
   127   65   66 1    
   128   65   69 1    
   129   65  131 1    
   130   66   67 am   BACKBONE|DICT|INTERRES
   131   66   68 2    
   132   67  132 1    
   133   67  133 1    
   134   69   70 1    
   135   69  134 1    
   136   69  135 1    
   137   70   71 1    
   138   71  136 1    
   139   71  137 1    
@<TRIPOS>SUBSTRUCTURE
     1 UNK         1 GROUP             0       ****    0 ROOT    
