@<TRIPOS>MOLECULE
3R137
137   139    1
SMALL
USER_CHARGES


@<TRIPOS>ATOM
      1 CA         33.1508    0.4636   -0.9770 C.3       0 UNK        -0.2020 
      2 C          31.9082   -0.1676   -1.5863 C.2       0 UNK         0.4855 
      3 O          31.4870    0.2397   -2.6695 O.2       0 UNK        -0.5197 
      4 N          31.3318   -1.1589   -0.8945 N.am      1 UNK        -0.4892 
      5 CA         30.1198   -1.8935   -1.2780 C.3       1 UNK         0.0835 
      6 C6         29.8193   -3.0486   -0.2841 C.3       12 UNK        -0.0855 
      7 S7         31.2354   -4.1811   -0.0448 S.3       12 UNK        -0.2931 
      8 C8         30.6883   -5.6881   -0.9137 C.3       12 UNK         0.0378 
      9 C9         30.3386   -5.4228   -2.3713 C.ar      12 UNK        -0.0802 
     10 C10        31.2917   -4.8795   -3.2385 C.ar      12 UNK        -0.0944 
     11 C11        30.9581   -4.5784   -4.5616 C.ar      12 UNK        -0.0787 
     12 C12        29.6742   -4.8716   -5.0289 C.ar      12 UNK        -0.0862 
     13 C13        28.7194   -5.4336   -4.1777 C.ar      12 UNK        -0.0733 
     14 C14        29.0547   -5.7044   -2.8487 C.ar      12 UNK        -0.0832 
     15 C15        27.3276   -5.7480   -4.6983 C.3       12 UNK         0.0240 
     16 S16        26.1348   -4.4560   -4.2315 S.3       12 UNK        -0.2522 
     17 C17        24.7854   -4.8300   -5.4063 C.3       12 UNK        -0.0967 
     18 CA         24.6141   -3.8044   -6.5578 C.3       5 UNK         0.0660 
     19 N          24.1682   -2.4943   -6.0760 N.am      5 UNK        -0.4015 
     20 C          22.9831   -1.9435   -6.3805 C.2       4 UNK         0.4946 
     21 O          22.1225   -2.4990   -7.0654 O.2       4 UNK        -0.5353 
     22 CA         22.6823   -0.5329   -5.8385 C.3       4 UNK         0.0277 
     23 CB         21.8422   -0.6237   -4.5538 C.3       4 UNK        -0.1981 
     24 N          23.8710    0.2783   -5.5747 N.am      4 UNK        -0.4209 
     25 C          24.7748    0.6577   -6.4893 C.2       3 UNK         0.4942 
     26 O          24.6849    0.4036   -7.6885 O.2       3 UNK        -0.5208 
     27 CA         26.0151    1.4066   -5.9710 C.3       3 UNK         0.0250 
     28 CB         25.8178    2.9235   -6.1221 C.3       3 UNK        -0.1990 
     29 N          26.3508    1.0923   -4.5756 N.am      3 UNK        -0.4232 
     30 C          26.6683   -0.1291   -4.1230 C.2       2 UNK         0.4993 
     31 O          26.7129   -1.1342   -4.8360 O.2       2 UNK        -0.5286 
     32 CA         26.8909   -0.2700   -2.6182 C.3       2 UNK         0.0209 
     33 CB         25.6550   -0.8954   -1.9471 C.3       2 UNK        -0.1931 
     34 N          28.0596   -1.1137   -2.3853 N.am      2 UNK        -0.4546 
     35 C          28.9041   -0.9469   -1.3610 C.2       1 UNK         0.5154 
     36 O          28.7394   -0.1012   -0.4762 O.2       1 UNK        -0.5181 
     37 C          25.8625   -3.6822   -7.4552 C.2       5 UNK         0.5014 
     38 O          25.9682   -4.4279   -8.4304 O.2       5 UNK        -0.5248 
     39 N          26.7841   -2.7636   -7.1284 N.am      6 UNK        -0.4434 
     40 CA         28.0456   -2.5729   -7.8462 C.3       6 UNK         0.0363 
     41 CB         29.0239   -1.8103   -6.9381 C.3       6 UNK        -0.1936 
     42 C          27.8984   -1.8127   -9.1733 C.2       6 UNK         0.5081 
     43 O          28.7367   -2.0012  -10.0560 O.2       6 UNK        -0.5248 
     44 N          26.8831   -0.9381   -9.2691 N.am      7 UNK        -0.4718 
     45 CA         26.7394    0.1303  -10.2688 C.3       7 UNK         0.0273 
     46 CB         26.5714   -0.4487  -11.6922 C.3       7 UNK        -0.1935 
     47 C          27.8840    1.1606  -10.1473 C.2       7 UNK         0.5018 
     48 O          28.5050    1.2541   -9.0851 O.2       7 UNK        -0.5186 
     49 N          28.1219    1.9394  -11.2147 N.am      8 UNK        -0.4240 
     50 CA         29.2698    2.8396  -11.4283 C.3       8 UNK         0.0235 
     51 CB         30.5246    1.9961  -11.7414 C.3       8 UNK        -0.2000 
     52 C          29.5382    3.8712  -10.3078 C.2       8 UNK         0.4941 
     53 O          30.6850    4.2842  -10.1298 O.2       8 UNK        -0.5273 
     54 N          28.4846    4.2599   -9.5724 N.am      9 UNK        -0.4262 
     55 CA         28.5105    5.0973   -8.3644 C.3       9 UNK         0.0264 
     56 CB         28.9562    6.5393   -8.6930 C.3       9 UNK        -0.1955 
     57 C          29.3023    4.4662   -7.1948 C.2       9 UNK         0.5031 
     58 O          29.9238    5.1975   -6.4210 O.2       9 UNK        -0.5390 
     59 N          29.2169    3.1310   -7.0787 N.am      10 UNK        -0.4204 
     60 CA         29.8402    2.2298   -6.1015 C.3       10 UNK         0.0237 
     61 CB         29.7139    2.7309   -4.6483 C.3       10 UNK        -0.1985 
     62 C          31.2890    1.8788   -6.4748 C.2       10 UNK         0.4970 
     63 O          32.0072    2.6992   -7.0496 O.2       10 UNK        -0.4914 
     64 N          31.6877    0.6461   -6.1407 N.am      11 UNK        -0.4285 
     65 CA         33.0311    0.1010   -6.3913 C.3       11 UNK         0.1007 
     66 C          34.1438    0.6779   -5.4706 C.2       11 UNK         0.5703 
     67 N          33.8226    1.2084   -4.2973 N.am      11 UNK        -0.7361 
     68 O          35.3158    0.6615   -5.8400 O.2       11 UNK        -0.4986 
     69 C69        33.0307   -1.4526   -6.4093 C.3       12 UNK        -0.0947 
     70 S70        32.2571   -2.1907   -4.9315 S.3       12 UNK        -0.2240 
     71 C71        31.9718   -3.9025   -5.4715 C.3       12 UNK         0.0194 
     72 H72        33.0711    1.5500   -1.0011 H         1 UNK         0.0906 
     73 H73        34.0342    0.1719   -1.5441 H         1 UNK         0.0906 
     74 H74        33.2958    0.1591    0.0593 H         1 UNK         0.0906 
     75 H75        31.7359   -1.4458   -0.0148 H         1 UNK         0.3140 
     76 H76        30.2971   -2.3162   -2.2694 H         1 UNK         0.1085 
     77 H77        29.5550   -2.6470    0.6965 H         1 UNK         0.0836 
     78 H78        28.9493   -3.6195   -0.6146 H         1 UNK         0.0836 
     79 H79        29.8385   -6.1143   -0.3781 H         1 UNK         0.0731 
     80 H80        31.4850   -6.4318   -0.8691 H         1 UNK         0.0731 
     81 H81        32.2819   -4.6473   -2.8703 H         1 UNK         0.1312 
     82 H82        29.4117   -4.6523   -6.0541 H         1 UNK         0.1406 
     83 H83        28.3097   -6.1260   -2.1872 H         1 UNK         0.1631 
     84 H84        26.9902   -6.7096   -4.3087 H         1 UNK         0.0717 
     85 H85        27.3542   -5.8478   -5.7847 H         1 UNK         0.0717 
     86 H86        24.9251   -5.8305   -5.8200 H         1 UNK         0.0934 
     87 H87        23.8571   -4.8886   -4.8359 H         1 UNK         0.0934 
     88 H88        23.8458   -4.2214   -7.2124 H         1 UNK         0.0739 
     89 H89        24.8251   -1.9780   -5.5038 H         1 UNK         0.3093 
     90 H90        22.0943   -0.0137   -6.5984 H         1 UNK         0.0818 
     91 H91        20.9306   -1.1987   -4.7236 H         1 UNK         0.0819 
     92 H92        22.3892   -1.1126   -3.7465 H         1 UNK         0.0819 
     93 H93        21.5380    0.3637   -4.2060 H         1 UNK         0.0819 
     94 H94        24.0291    0.5484   -4.6155 H         1 UNK         0.3041 
     95 H95        26.8594    1.1033   -6.5931 H         1 UNK         0.0784 
     96 H96        25.6465    3.1907   -7.1659 H         1 UNK         0.0793 
     97 H97        24.9594    3.2782   -5.5500 H         1 UNK         0.0793 
     98 H98        26.6924    3.4788   -5.7862 H         1 UNK         0.0793 
     99 H99        26.3121    1.8618   -3.9223 H         1 UNK         0.3024 
    100 H100       27.0630    0.7242   -2.1985 H         1 UNK         0.1171 
    101 H101       24.7659   -0.2853   -2.1106 H         1 UNK         0.0786 
    102 H102       25.4459   -1.8921   -2.3389 H         1 UNK         0.0786 
    103 H103       25.7923   -0.9836   -0.8692 H         1 UNK         0.0786 
    104 H104       28.2378   -1.8082   -3.1003 H         1 UNK         0.2977 
    105 H105       26.6721   -2.2135   -6.2779 H         1 UNK         0.3127 
    106 H106       28.4716   -3.5540   -8.0662 H         1 UNK         0.0770 
    107 H107       28.6788   -0.7927   -6.7625 H         1 UNK         0.0814 
    108 H108       30.0109   -1.7448   -7.3966 H         1 UNK         0.0814 
    109 H109       29.1407   -2.2878   -5.9666 H         1 UNK         0.0814 
    110 H110       26.2517   -0.8565   -8.4813 H         1 UNK         0.2983 
    111 H111       25.8218    0.6633  -10.0184 H         1 UNK         0.0947 
    112 H112       27.5079   -0.8446  -12.0868 H         1 UNK         0.0806 
    113 H113       26.2154    0.3087  -12.3909 H         1 UNK         0.0806 
    114 H114       25.8394   -1.2564  -11.7037 H         1 UNK         0.0806 
    115 H115       27.5164    1.8236  -12.0156 H         1 UNK         0.3000 
    116 H116       29.0359    3.4258  -12.3184 H         1 UNK         0.0850 
    117 H117       31.3620    2.6260  -12.0441 H         1 UNK         0.0810 
    118 H118       30.3405    1.2959  -12.5563 H         1 UNK         0.0810 
    119 H119       30.8457    1.4207  -10.8719 H         1 UNK         0.0810 
    120 H120       27.5852    3.8679   -9.8139 H         1 UNK         0.3040 
    121 H121       27.4768    5.1526   -8.0197 H         1 UNK         0.0766 
    122 H122       30.0092    6.5851   -8.9719 H         1 UNK         0.0812 
    123 H123       28.8220    7.1950   -7.8319 H         1 UNK         0.0812 
    124 H124       28.3726    6.9592   -9.5120 H         1 UNK         0.0812 
    125 H125       28.7768    2.6311   -7.8497 H         1 UNK         0.3205 
    126 H126       29.2580    1.3123   -6.1717 H         1 UNK         0.0754 
    127 H127       29.9538    1.9356   -3.9433 H         1 UNK         0.0769 
    128 H128       28.7013    3.0636   -4.4238 H         1 UNK         0.0769 
    129 H129       30.3943    3.5576   -4.4424 H         1 UNK         0.0769 
    130 H130       31.0745    0.0460   -5.6085 H         1 UNK         0.2981 
    131 H131       33.3090    0.4140   -7.3998 H         1 UNK         0.0541 
    132 H132       34.5485    1.5980   -3.7191 H         1 UNK         0.3459 
    133 H133       32.8766    1.1260   -3.9443 H         1 UNK         0.3459 
    134 H134       34.0425   -1.8478   -6.5168 H         1 UNK         0.0612 
    135 H135       32.4839   -1.7959   -7.2884 H         1 UNK         0.0612 
    136 H136       32.9142   -4.4516   -5.4551 H         1 UNK         0.0624 
    137 H137       31.6206   -3.9075   -6.5044 H         1 UNK         0.0624 
@<TRIPOS>BOND
     1    1    2 1    
     2    1   72 1    
     3    1   73 1    
     4    1   74 1    
     5    2    3 2    
     6    2    4 am   BACKBONE|DICT|INTERRES
     7    4    5 1    
     8    4   75 1    
     9    5    6 1    
    10    5   35 1    
    11    5   76 1    
    12    6    7 1    
    13    6   77 1    
    14    6   78 1    
    15    7    8 1    
    16    8    9 1    
    17    8   79 1    
    18    8   80 1    
    19    9   10 ar   
    20    9   14 ar   
    21   10   11 ar   
    22   10   81 1    
    23   11   12 ar   
    24   11   71 1    
    25   12   13 ar   
    26   12   82 1    
    27   13   14 ar   
    28   13   15 1    
    29   14   83 1    
    30   15   16 1    
    31   15   84 1    
    32   15   85 1    
    33   16   17 1    
    34   17   18 1    
    35   17   86 1    
    36   17   87 1    
    37   18   19 1    
    38   18   37 1    
    39   18   88 1    
    40   19   20 am   BACKBONE|DICT|INTERRES
    41   19   89 1    
    42   20   21 2    
    43   20   22 1    
    44   22   23 1    
    45   22   24 1    
    46   22   90 1    
    47   23   91 1    
    48   23   92 1    
    49   23   93 1    
    50   24   25 am   BACKBONE|DICT|INTERRES
    51   24   94 1    
    52   25   26 2    
    53   25   27 1    
    54   27   28 1    
    55   27   29 1    
    56   27   95 1    
    57   28   96 1    
    58   28   97 1    
    59   28   98 1    
    60   29   30 am   BACKBONE|DICT|INTERRES
    61   29   99 1    
    62   30   31 2    
    63   30   32 1    
    64   32   33 1    
    65   32   34 1    
    66   32  100 1    
    67   33  101 1    
    68   33  102 1    
    69   33  103 1    
    70   34   35 am   BACKBONE|DICT|INTERRES
    71   34  104 1    
    72   35   36 2    
    73   37   38 2    
    74   37   39 am   BACKBONE|DICT|INTERRES
    75   39   40 1    
    76   39  105 1    
    77   40   41 1    
    78   40   42 1    
    79   40  106 1    
    80   41  107 1    
    81   41  108 1    
    82   41  109 1    
    83   42   43 2    
    84   42   44 am   BACKBONE|DICT|INTERRES
    85   44   45 1    
    86   44  110 1    
    87   45   46 1    
    88   45   47 1    
    89   45  111 1    
    90   46  112 1    
    91   46  113 1    
    92   46  114 1    
    93   47   48 2    
    94   47   49 am   BACKBONE|DICT|INTERRES
    95   49   50 1    
    96   49  115 1    
    97   50   51 1    
    98   50   52 1    
    99   50  116 1    
   100   51  117 1    
   101   51  118 1    
   102   51  119 1    
   103   52   53 2    
   104   52   54 am   BACKBONE|DICT|INTERRES
   105   54   55 1    
   106   54  120 1    
   107   55   56 1    
   108   55   57 1    
   109   55  121 1    
   110   56  122 1    
   111   56  123 1    
   112   56  124 1    
   113   57   58 2    
   114   57   59 am   BACKBONE|DICT|INTERRES
   115   59   60 1    
   116   59  125 1    
   117   60   61 1    
   118   60   62 1    
   119   60  126 1    
   120   61  127 1    
   121   61  128 1    
   122   61  129 1    
   123   62   63 2    
   124   62   64 am   BACKBONE|DICT|INTERRES
   125   64   65 1    
   126   64  130 1    
   127   65   66 1    
   128   65   69 1    
   129   65  131 1    
   130   66   67 am   BACKBONE|DICT|INTERRES
   131   66   68 2    
   132   67  132 1    
   133   67  133 1    
   134   69   70 1    
   135   69  134 1    
   136   69  135 1    
   137   70   71 1    
   138   71  136 1    
   139   71  137 1    
@<TRIPOS>SUBSTRUCTURE
     1 UNK         1 GROUP             0       ****    0 ROOT    
