@<TRIPOS>MOLECULE
3R137
137   139    1
SMALL
USER_CHARGES


@<TRIPOS>ATOM
      1 CA         28.7596   -5.6737    0.5543 C.3       0 UNK        -0.2020 
      2 C          27.6794   -4.6459    0.8561 C.2       0 UNK         0.4855 
      3 O          26.6763   -4.9772    1.4882 O.2       0 UNK        -0.5197 
      4 N          27.8765   -3.3995    0.4074 N.am      1 UNK        -0.4892 
      5 CA         26.9326   -2.2853    0.5735 C.3       1 UNK         0.0835 
      6 C6         27.6293   -0.9104    0.3862 C.3       12 UNK        -0.0855 
      7 S7         28.3204   -0.6421   -1.2856 S.3       12 UNK        -0.2931 
      8 C8         30.0686   -1.0799   -1.0332 C.3       12 UNK         0.0378 
      9 C9         30.7496   -1.4589   -2.3410 C.ar      12 UNK        -0.0802 
     10 C10        31.9144   -0.7994   -2.7451 C.ar      12 UNK        -0.0944 
     11 C11        32.5740   -1.1821   -3.9165 C.ar      12 UNK        -0.0787 
     12 C12        32.0525   -2.2194   -4.6960 C.ar      12 UNK        -0.0862 
     13 C13        30.8846   -2.8817   -4.3071 C.ar      12 UNK        -0.0733 
     14 C14        30.2417   -2.5010   -3.1261 C.ar      12 UNK        -0.0832 
     15 C15        30.3467   -4.0342   -5.1433 C.3       12 UNK         0.0240 
     16 S16        29.5259   -3.4607   -6.6620 S.3       12 UNK        -0.2522 
     17 C17        27.9030   -2.9144   -6.0384 C.3       12 UNK        -0.0967 
     18 CA         27.2639   -1.8417   -6.9558 C.3       5 UNK         0.0660 
     19 N          25.8008   -1.8546   -6.8785 N.am      5 UNK        -0.4015 
     20 C          24.9869   -1.2594   -7.7629 C.2       4 UNK         0.4946 
     21 O          25.3822   -0.6522   -8.7574 O.2       4 UNK        -0.5353 
     22 CA         23.4769   -1.3219   -7.4751 C.3       4 UNK         0.0277 
     23 CB         22.8800   -2.6367   -8.0016 C.3       4 UNK        -0.1981 
     24 N          23.1596   -1.1706   -6.0532 N.am      4 UNK        -0.4209 
     25 C          23.3852   -0.0544   -5.3457 C.2       3 UNK         0.4942 
     26 O          23.8364    0.9815   -5.8289 O.2       3 UNK        -0.5208 
     27 CA         23.1114   -0.1146   -3.8349 C.3       3 UNK         0.0250 
     28 CB         21.6477    0.2478   -3.5378 C.3       3 UNK        -0.1990 
     29 N          23.4351   -1.4047   -3.2166 N.am      3 UNK        -0.4232 
     30 C          24.6377   -1.9955   -3.2482 C.2       2 UNK         0.4993 
     31 O          25.6065   -1.5620   -3.8787 O.2       2 UNK        -0.5286 
     32 CA         24.7785   -3.3069   -2.4622 C.3       2 UNK         0.0209 
     33 CB         25.1554   -4.4688   -3.3966 C.3       2 UNK        -0.1931 
     34 N          25.8015   -3.1680   -1.4294 N.am      2 UNK        -0.4546 
     35 C          25.6802   -2.4201   -0.3225 C.2       1 UNK         0.5154 
     36 O          24.6371   -1.8505    0.0039 O.2       1 UNK        -0.5181 
     37 C          27.8172   -0.4328   -6.6732 C.2       5 UNK         0.5014 
     38 O          28.6953    0.0325   -7.4029 O.2       5 UNK        -0.5248 
     39 N          27.2500    0.2357   -5.6572 N.am      6 UNK        -0.4434 
     40 CA         27.5419    1.6272   -5.3099 C.3       6 UNK         0.0363 
     41 CB         26.8326    1.9918   -3.9965 C.3       6 UNK        -0.1936 
     42 C          27.1623    2.6148   -6.4280 C.2       6 UNK         0.5081 
     43 O          27.9505    3.5105   -6.7289 O.2       6 UNK        -0.5248 
     44 N          25.9815    2.4253   -7.0363 N.am      7 UNK        -0.4718 
     45 CA         25.4835    3.2222   -8.1617 C.3       7 UNK         0.0273 
     46 CB         24.0038    2.8968   -8.4196 C.3       7 UNK        -0.1935 
     47 C          26.3087    3.0329   -9.4440 C.2       7 UNK         0.5018 
     48 O          26.5876    4.0182  -10.1286 O.2       7 UNK        -0.5186 
     49 N          26.6991    1.7837   -9.7386 N.am      8 UNK        -0.4240 
     50 CA         27.5962    1.4429  -10.8469 C.3       8 UNK         0.0235 
     51 CB         27.5861   -0.0788  -11.0667 C.3       8 UNK        -0.2000 
     52 C          29.0374    1.9347  -10.6274 C.2       8 UNK         0.4941 
     53 O          29.7303    2.2081  -11.6082 O.2       8 UNK        -0.5273 
     54 N          29.4552    2.0178   -9.3545 N.am      9 UNK        -0.4262 
     55 CA         30.7970    2.3505   -8.8674 C.3       9 UNK         0.0264 
     56 CB         31.1625    3.8137   -9.1933 C.3       9 UNK        -0.1955 
     57 C          31.8447    1.3351   -9.3561 C.2       9 UNK         0.5031 
     58 O          32.9348    1.7204   -9.7869 O.2       9 UNK        -0.5390 
     59 N          31.4910    0.0435   -9.2882 N.am      10 UNK        -0.4204 
     60 CA         32.3001   -1.0888   -9.7504 C.3       10 UNK         0.0237 
     61 CB         31.3680   -2.2802  -10.0367 C.3       10 UNK        -0.1985 
     62 C          33.4331   -1.4318   -8.7621 C.2       10 UNK         0.4970 
     63 O          33.5114   -2.5596   -8.2717 O.2       10 UNK        -0.4914 
     64 N          34.2733   -0.4330   -8.4781 N.am      11 UNK        -0.4285 
     65 CA         35.3575   -0.4661   -7.4863 C.3       11 UNK         0.1007 
     66 C          36.7766   -0.5040   -8.1209 C.2       11 UNK         0.5703 
     67 N          36.9163   -0.5427   -9.4412 N.am      11 UNK        -0.7361 
     68 O          37.7733   -0.5185   -7.4021 O.2       11 UNK        -0.4986 
     69 C69        35.2166    0.6954   -6.4623 C.3       12 UNK        -0.0947 
     70 S70        33.5858    0.7172   -5.6425 S.3       12 UNK        -0.2240 
     71 C71        33.8697   -0.5040   -4.3281 C.3       12 UNK         0.0194 
     72 H72        29.1564   -6.0839    1.4826 H         1 UNK         0.0906 
     73 H73        29.5888   -5.2438   -0.0075 H         1 UNK         0.0906 
     74 H74        28.3437   -6.4941   -0.0299 H         1 UNK         0.0906 
     75 H75        28.7187   -3.1809   -0.1032 H         1 UNK         0.3140 
     76 H76        26.5677   -2.3216    1.6028 H         1 UNK         0.1085 
     77 H77        28.4206   -0.7913    1.1282 H         1 UNK         0.0836 
     78 H78        26.9223   -0.1037    0.5905 H         1 UNK         0.0836 
     79 H79        30.5732   -0.2378   -0.5568 H         1 UNK         0.0731 
     80 H80        30.1550   -1.9193   -0.3435 H         1 UNK         0.0731 
     81 H81        32.3203   -0.0008   -2.1391 H         1 UNK         0.1312 
     82 H82        32.5592   -2.5150   -5.6054 H         1 UNK         0.1406 
     83 H83        29.3444   -3.0171   -2.8140 H         1 UNK         0.1631 
     84 H84        29.6561   -4.6508   -4.5656 H         1 UNK         0.0717 
     85 H85        31.1748   -4.6873   -5.4224 H         1 UNK         0.0717 
     86 H86        27.2711   -3.8029   -6.0033 H         1 UNK         0.0934 
     87 H87        27.9842   -2.5631   -5.0077 H         1 UNK         0.0934 
     88 H88        27.5165   -2.0846   -7.9908 H         1 UNK         0.0739 
     89 H89        25.4013   -2.2452   -6.0367 H         1 UNK         0.3093 
     90 H90        23.0059   -0.4955   -8.0119 H         1 UNK         0.0818 
     91 H91        23.0899   -2.7603   -9.0651 H         1 UNK         0.0819 
     92 H92        23.2901   -3.5057   -7.4856 H         1 UNK         0.0819 
     93 H93        21.7964   -2.6557   -7.8837 H         1 UNK         0.0819 
     94 H94        22.7758   -1.9733   -5.5760 H         1 UNK         0.3041 
     95 H95        23.7488    0.6352   -3.3619 H         1 UNK         0.0784 
     96 H96        21.3896    1.2148   -3.9725 H         1 UNK         0.0793 
     97 H97        20.9560   -0.4890   -3.9483 H         1 UNK         0.0793 
     98 H98        21.4659    0.3195   -2.4652 H         1 UNK         0.0793 
     99 H99        22.7024   -1.8305   -2.6667 H         1 UNK         0.3024 
    100 H100       23.8287   -3.5464   -1.9786 H         1 UNK         0.1171 
    101 H101       24.4180   -4.5881   -4.1916 H         1 UNK         0.0786 
    102 H102       26.1249   -4.3103   -3.8695 H         1 UNK         0.0786 
    103 H103       25.2004   -5.4131   -2.8537 H         1 UNK         0.0786 
    104 H104       26.7045   -3.5717   -1.6248 H         1 UNK         0.2977 
    105 H105       26.5642   -0.2482   -5.0841 H         1 UNK         0.3127 
    106 H106       28.6193    1.7042   -5.1482 H         1 UNK         0.0770 
    107 H107       25.7482    1.9420   -4.0945 H         1 UNK         0.0814 
    108 H108       27.0859    3.0063   -3.6865 H         1 UNK         0.0814 
    109 H109       27.1254    1.3226   -3.1882 H         1 UNK         0.0814 
    110 H110       25.3513    1.7134   -6.6729 H         1 UNK         0.2983 
    111 H111       25.5547    4.2748   -7.8790 H         1 UNK         0.0947 
    112 H112       23.8595    1.8442   -8.6659 H         1 UNK         0.0806 
    113 H113       23.6123    3.4847   -9.2509 H         1 UNK         0.0806 
    114 H114       23.3910    3.1227   -7.5468 H         1 UNK         0.0806 
    115 H115       26.3610    1.0123   -9.1689 H         1 UNK         0.3000 
    116 H116       27.2165    1.9233  -11.7512 H         1 UNK         0.0850 
    117 H117       28.2376   -0.3597  -11.8954 H         1 UNK         0.0810 
    118 H118       26.5848   -0.4379  -11.3052 H         1 UNK         0.0810 
    119 H119       27.9315   -0.6158  -10.1823 H         1 UNK         0.0810 
    120 H120       28.8172    1.6903   -8.6365 H         1 UNK         0.3040 
    121 H121       30.7591    2.2530   -7.7811 H         1 UNK         0.0766 
    122 H122       31.2702    3.9770  -10.2659 H         1 UNK         0.0812 
    123 H123       32.1079    4.0917   -8.7259 H         1 UNK         0.0812 
    124 H124       30.4022    4.5013   -8.8226 H         1 UNK         0.0812 
    125 H125       30.6004   -0.1783   -8.8597 H         1 UNK         0.3205 
    126 H126       32.7746   -0.8110  -10.6939 H         1 UNK         0.0754 
    127 H127       31.9282   -3.1329  -10.4228 H         1 UNK         0.0769 
    128 H128       30.6144   -2.0244  -10.7819 H         1 UNK         0.0769 
    129 H129       30.8499   -2.6100   -9.1368 H         1 UNK         0.0769 
    130 H130       34.1029    0.4630   -8.9268 H         1 UNK         0.2981 
    131 H131       35.2885   -1.3988   -6.9252 H         1 UNK         0.0541 
    132 H132       36.1068   -0.5457  -10.0408 H         1 UNK         0.3459 
    133 H133       37.8417   -0.5744   -9.8395 H         1 UNK         0.3459 
    134 H134       35.3525    1.6565   -6.9613 H         1 UNK         0.0612 
    135 H135       35.9909    0.6377   -5.6949 H         1 UNK         0.0612 
    136 H136       34.5732   -1.2653   -4.6671 H         1 UNK         0.0624 
    137 H137       34.3401   -0.0099   -3.4767 H         1 UNK         0.0624 
@<TRIPOS>BOND
     1    1    2 1    
     2    1   72 1    
     3    1   73 1    
     4    1   74 1    
     5    2    3 2    
     6    2    4 am   BACKBONE|DICT|INTERRES
     7    4    5 1    
     8    4   75 1    
     9    5    6 1    
    10    5   35 1    
    11    5   76 1    
    12    6    7 1    
    13    6   77 1    
    14    6   78 1    
    15    7    8 1    
    16    8    9 1    
    17    8   79 1    
    18    8   80 1    
    19    9   10 ar   
    20    9   14 ar   
    21   10   11 ar   
    22   10   81 1    
    23   11   12 ar   
    24   11   71 1    
    25   12   13 ar   
    26   12   82 1    
    27   13   14 ar   
    28   13   15 1    
    29   14   83 1    
    30   15   16 1    
    31   15   84 1    
    32   15   85 1    
    33   16   17 1    
    34   17   18 1    
    35   17   86 1    
    36   17   87 1    
    37   18   19 1    
    38   18   37 1    
    39   18   88 1    
    40   19   20 am   BACKBONE|DICT|INTERRES
    41   19   89 1    
    42   20   21 2    
    43   20   22 1    
    44   22   23 1    
    45   22   24 1    
    46   22   90 1    
    47   23   91 1    
    48   23   92 1    
    49   23   93 1    
    50   24   25 am   BACKBONE|DICT|INTERRES
    51   24   94 1    
    52   25   26 2    
    53   25   27 1    
    54   27   28 1    
    55   27   29 1    
    56   27   95 1    
    57   28   96 1    
    58   28   97 1    
    59   28   98 1    
    60   29   30 am   BACKBONE|DICT|INTERRES
    61   29   99 1    
    62   30   31 2    
    63   30   32 1    
    64   32   33 1    
    65   32   34 1    
    66   32  100 1    
    67   33  101 1    
    68   33  102 1    
    69   33  103 1    
    70   34   35 am   BACKBONE|DICT|INTERRES
    71   34  104 1    
    72   35   36 2    
    73   37   38 2    
    74   37   39 am   BACKBONE|DICT|INTERRES
    75   39   40 1    
    76   39  105 1    
    77   40   41 1    
    78   40   42 1    
    79   40  106 1    
    80   41  107 1    
    81   41  108 1    
    82   41  109 1    
    83   42   43 2    
    84   42   44 am   BACKBONE|DICT|INTERRES
    85   44   45 1    
    86   44  110 1    
    87   45   46 1    
    88   45   47 1    
    89   45  111 1    
    90   46  112 1    
    91   46  113 1    
    92   46  114 1    
    93   47   48 2    
    94   47   49 am   BACKBONE|DICT|INTERRES
    95   49   50 1    
    96   49  115 1    
    97   50   51 1    
    98   50   52 1    
    99   50  116 1    
   100   51  117 1    
   101   51  118 1    
   102   51  119 1    
   103   52   53 2    
   104   52   54 am   BACKBONE|DICT|INTERRES
   105   54   55 1    
   106   54  120 1    
   107   55   56 1    
   108   55   57 1    
   109   55  121 1    
   110   56  122 1    
   111   56  123 1    
   112   56  124 1    
   113   57   58 2    
   114   57   59 am   BACKBONE|DICT|INTERRES
   115   59   60 1    
   116   59  125 1    
   117   60   61 1    
   118   60   62 1    
   119   60  126 1    
   120   61  127 1    
   121   61  128 1    
   122   61  129 1    
   123   62   63 2    
   124   62   64 am   BACKBONE|DICT|INTERRES
   125   64   65 1    
   126   64  130 1    
   127   65   66 1    
   128   65   69 1    
   129   65  131 1    
   130   66   67 am   BACKBONE|DICT|INTERRES
   131   66   68 2    
   132   67  132 1    
   133   67  133 1    
   134   69   70 1    
   135   69  134 1    
   136   69  135 1    
   137   70   71 1    
   138   71  136 1    
   139   71  137 1    
@<TRIPOS>SUBSTRUCTURE
     1 UNK         1 GROUP             0       ****    0 ROOT    
