@<TRIPOS>MOLECULE
3R137
137   139    1
SMALL
USER_CHARGES


@<TRIPOS>ATOM
      1 CA         22.5763   -2.9238   -2.0083 C.3       0 UNK        -0.2020 
      2 C          24.0430   -2.9769   -1.6100 C.2       0 UNK         0.4855 
      3 O          24.5173   -2.0783   -0.9143 O.2       0 UNK        -0.5197 
      4 N          24.7668   -4.0143   -2.0563 N.am      1 UNK        -0.4892 
      5 CA         26.1996   -4.2290   -1.8097 C.3       1 UNK         0.0835 
      6 C6         26.6908   -5.5731   -2.4158 C.3       12 UNK        -0.0855 
      7 S7         27.8792   -6.5273   -1.3971 S.3       12 UNK        -0.2931 
      8 C8         29.2378   -5.3780   -0.9507 C.3       12 UNK         0.0378 
      9 C9         30.0507   -4.7752   -2.1010 C.ar      12 UNK        -0.0802 
     10 C10        30.9231   -3.7166   -1.8168 C.ar      12 UNK        -0.0944 
     11 C11        31.6608   -3.0853   -2.8258 C.ar      12 UNK        -0.0787 
     12 C12        31.5347   -3.5522   -4.1386 C.ar      12 UNK        -0.0862 
     13 C13        30.6486   -4.5854   -4.4451 C.ar      12 UNK        -0.0733 
     14 C14        29.9386   -5.2173   -3.4239 C.ar      12 UNK        -0.0832 
     15 C15        30.3808   -4.9469   -5.8952 C.3       12 UNK         0.0240 
     16 S16        28.8633   -4.1221   -6.4787 S.3       12 UNK        -0.2522 
     17 C17        29.2765   -2.3633   -6.2055 C.3       12 UNK        -0.0967 
     18 CA         28.2230   -1.4305   -6.8329 C.3       5 UNK         0.0660 
     19 N          26.9552   -1.4531   -6.1057 N.am      5 UNK        -0.4015 
     20 C          25.8018   -1.0087   -6.6194 C.2       4 UNK         0.4946 
     21 O          25.6916   -0.5538   -7.7582 O.2       4 UNK        -0.5353 
     22 CA         24.5792   -1.0367   -5.6930 C.3       4 UNK         0.0277 
     23 CB         24.0214   -2.4628   -5.5575 C.3       4 UNK        -0.1981 
     24 N          24.8885   -0.4910   -4.3707 N.am      4 UNK        -0.4209 
     25 C          25.1546    0.8008   -4.1307 C.2       3 UNK         0.4942 
     26 O          25.1462    1.6768   -4.9961 O.2       3 UNK        -0.5208 
     27 CA         25.5270    1.1677   -2.6850 C.3       3 UNK         0.0250 
     28 CB         24.2657    1.3423   -1.8245 C.3       3 UNK        -0.1990 
     29 N          26.4185    0.1812   -2.0679 N.am      3 UNK        -0.4232 
     30 C          27.6905   -0.0098   -2.4496 C.2       2 UNK         0.4993 
     31 O          28.2353    0.6274   -3.3449 O.2       2 UNK        -0.5286 
     32 CA         28.4845   -1.1299   -1.7657 C.3       2 UNK         0.0209 
     33 CB         29.1744   -0.6076   -0.4958 C.3       2 UNK        -0.1931 
     34 N          27.6749   -2.3043   -1.4438 N.am      2 UNK        -0.4546 
     35 C          27.0156   -3.0387   -2.3499 C.2       1 UNK         0.5154 
     36 O          26.9892   -2.7832   -3.5573 O.2       1 UNK        -0.5181 
     37 C          28.7605   -0.0002   -7.0408 C.2       5 UNK         0.5014 
     38 O          29.4065    0.2334   -8.0608 O.2       5 UNK        -0.5248 
     39 N          28.4843    0.9488   -6.1333 N.am      6 UNK        -0.4434 
     40 CA         28.7732    2.3725   -6.3422 C.3       6 UNK         0.0363 
     41 CB         28.5963    3.1714   -5.0430 C.3       6 UNK        -0.1936 
     42 C          27.9307    2.9800   -7.4724 C.2       6 UNK         0.5081 
     43 O          28.4819    3.6965   -8.3067 O.2       6 UNK        -0.5248 
     44 N          26.6335    2.6418   -7.5254 N.am      7 UNK        -0.4718 
     45 CA         25.7288    3.0271   -8.6158 C.3       7 UNK         0.0273 
     46 CB         24.2853    2.6426   -8.2552 C.3       7 UNK        -0.1935 
     47 C          26.1385    2.4297   -9.9759 C.2       7 UNK         0.5018 
     48 O          25.9959    3.1000  -10.9988 O.2       7 UNK        -0.5186 
     49 N          26.6845    1.2057   -9.9567 N.am      8 UNK        -0.4240 
     50 CA         27.2822    0.5302  -11.1128 C.3       8 UNK         0.0235 
     51 CB         27.3117   -0.9832  -10.8413 C.3       8 UNK        -0.2000 
     52 C          28.6963    1.0347  -11.4748 C.2       8 UNK         0.4941 
     53 O          29.2344    0.5915  -12.4900 O.2       8 UNK        -0.5273 
     54 N          29.2817    1.9176  -10.6489 N.am      9 UNK        -0.4262 
     55 CA         30.6357    2.4817  -10.7448 C.3       9 UNK         0.0264 
     56 CB         30.8005    3.3261  -12.0268 C.3       9 UNK        -0.1955 
     57 C          31.7656    1.4456  -10.5576 C.2       9 UNK         0.5031 
     58 O          32.8777    1.6619  -11.0428 O.2       9 UNK        -0.5390 
     59 N          31.4779    0.3580   -9.8321 N.am      10 UNK        -0.4204 
     60 CA         32.4262   -0.6932   -9.4584 C.3       10 UNK         0.0237 
     61 CB         31.7104   -2.0538   -9.5051 C.3       10 UNK        -0.1985 
     62 C          33.0525   -0.4503   -8.0726 C.2       10 UNK         0.4970 
     63 O          34.1668   -0.9193   -7.8396 O.2       10 UNK        -0.4914 
     64 N          32.3508    0.2805   -7.1947 N.am      11 UNK        -0.4285 
     65 CA         32.8224    0.6981   -5.8600 C.3       11 UNK         0.1007 
     66 C          32.6917    2.2312   -5.6234 C.2       11 UNK         0.5703 
     67 N          32.5084    3.0426   -6.6590 N.am      11 UNK        -0.7361 
     68 O          32.7796    2.7022   -4.4923 O.2       11 UNK        -0.4986 
     69 C69        32.2054   -0.1709   -4.7156 C.3       12 UNK        -0.0947 
     70 S70        33.4872   -1.1028   -3.8046 S.3       12 UNK        -0.2240 
     71 C71        32.5392   -1.8868   -2.4484 C.3       12 UNK         0.0194 
     72 H72        22.3027   -3.7425   -2.6736 H         1 UNK         0.0906 
     73 H73        21.9464   -2.9821   -1.1211 H         1 UNK         0.0906 
     74 H74        22.3591   -1.9853   -2.5177 H         1 UNK         0.0906 
     75 H75        24.3188   -4.7075   -2.6384 H         1 UNK         0.3140 
     76 H76        26.3147   -4.2748   -0.7248 H         1 UNK         0.1085 
     77 H77        25.8407   -6.2451   -2.5444 H         1 UNK         0.0836 
     78 H78        27.0828   -5.4476   -3.4268 H         1 UNK         0.0836 
     79 H79        29.9303   -5.9257   -0.3102 H         1 UNK         0.0731 
     80 H80        28.8314   -4.5808   -0.3289 H         1 UNK         0.0731 
     81 H81        31.0120   -3.3631   -0.7985 H         1 UNK         0.1312 
     82 H82        32.0793   -3.0869   -4.9462 H         1 UNK         0.1406 
     83 H83        29.2692   -6.0239   -3.6832 H         1 UNK         0.1631 
     84 H84        30.2667   -6.0270   -5.9973 H         1 UNK         0.0717 
     85 H85        31.2202   -4.6615   -6.5315 H         1 UNK         0.0717 
     86 H86        29.3551   -2.1695   -5.1343 H         1 UNK         0.0934 
     87 H87        30.2645   -2.1871   -6.6322 H         1 UNK         0.0934 
     88 H88        28.0186   -1.8123   -7.8345 H         1 UNK         0.0739 
     89 H89        26.9662   -1.8634   -5.1732 H         1 UNK         0.3093 
     90 H90        23.8068   -0.4113   -6.1461 H         1 UNK         0.0818 
     91 H91        23.0948   -2.4723   -4.9844 H         1 UNK         0.0819 
     92 H92        23.7965   -2.8858   -6.5376 H         1 UNK         0.0819 
     93 H93        24.7283   -3.1342   -5.0689 H         1 UNK         0.0819 
     94 H94        24.9868   -1.1498   -3.6120 H         1 UNK         0.3041 
     95 H95        26.0523    2.1250   -2.7124 H         1 UNK         0.0784 
     96 H96        23.6052    2.0983   -2.2515 H         1 UNK         0.0793 
     97 H97        23.6940    0.4170   -1.7468 H         1 UNK         0.0793 
     98 H98        24.5169    1.6661   -0.8143 H         1 UNK         0.0793 
     99 H99        26.0197   -0.4273   -1.3624 H         1 UNK         0.3024 
    100 H100       29.2539   -1.4473   -2.4727 H         1 UNK         0.1171 
    101 H101       29.8097   -1.3683   -0.0432 H         1 UNK         0.0786 
    102 H102       29.8110    0.2486   -0.7245 H         1 UNK         0.0786 
    103 H103       28.4509   -0.2850    0.2539 H         1 UNK         0.0786 
    104 H104       27.5950   -2.5432   -0.4661 H         1 UNK         0.2977 
    105 H105       28.0594    0.6996   -5.2436 H         1 UNK         0.3127 
    106 H106       29.8179    2.4590   -6.6413 H         1 UNK         0.0770 
    107 H107       27.5922    3.0610   -4.6329 H         1 UNK         0.0814 
    108 H108       28.7668    4.2354   -5.2115 H         1 UNK         0.0814 
    109 H109       29.3097    2.8506   -4.2839 H         1 UNK         0.0814 
    110 H110       26.2399    2.0755   -6.7804 H         1 UNK         0.2983 
    111 H111       25.7750    4.1141   -8.7122 H         1 UNK         0.0947 
    112 H112       23.5908    2.9631   -9.0328 H         1 UNK         0.0806 
    113 H113       23.9708    3.1143   -7.3240 H         1 UNK         0.0806 
    114 H114       24.1683    1.5654   -8.1382 H         1 UNK         0.0806 
    115 H115       26.6755    0.6943   -9.0796 H         1 UNK         0.3000 
    116 H116       26.6427    0.7074  -11.9801 H         1 UNK         0.0850 
    117 H117       27.6102   -1.5332  -11.7346 H         1 UNK         0.0810 
    118 H118       26.3323   -1.3572  -10.5421 H         1 UNK         0.0810 
    119 H119       28.0243   -1.2345  -10.0567 H         1 UNK         0.0810 
    120 H120       28.7558    2.2232   -9.8378 H         1 UNK         0.3040 
    121 H121       30.7253    3.1640   -9.8984 H         1 UNK         0.0766 
    122 H122       30.8040    2.7064  -12.9239 H         1 UNK         0.0812 
    123 H123       31.7403    3.8793  -12.0130 H         1 UNK         0.0812 
    124 H124       29.9981    4.0571  -12.1257 H         1 UNK         0.0812 
    125 H125       30.5503    0.2930   -9.4126 H         1 UNK         0.3205 
    126 H126       33.2434   -0.7216  -10.1824 H         1 UNK         0.0754 
    127 H127       32.3689   -2.8585   -9.1749 H         1 UNK         0.0769 
    128 H128       31.3922   -2.2926  -10.5202 H         1 UNK         0.0769 
    129 H129       30.8246   -2.0714   -8.8716 H         1 UNK         0.0769 
    130 H130       31.4292    0.6034   -7.4599 H         1 UNK         0.2981 
    131 H131       33.9055    0.5675   -5.8435 H         1 UNK         0.0541 
    132 H132       32.5161    2.6882   -7.6006 H         1 UNK         0.3459 
    133 H133       32.4392    4.0344   -6.4937 H         1 UNK         0.3459 
    134 H134       31.4831   -0.8781   -5.1158 H         1 UNK         0.0612 
    135 H135       31.6393    0.4262   -3.9981 H         1 UNK         0.0612 
    136 H136       31.9195   -1.1247   -1.9737 H         1 UNK         0.0624 
    137 H137       33.2551   -2.2145   -1.6933 H         1 UNK         0.0624 
@<TRIPOS>BOND
     1    1    2 1    
     2    1   72 1    
     3    1   73 1    
     4    1   74 1    
     5    2    3 2    
     6    2    4 am   BACKBONE|DICT|INTERRES
     7    4    5 1    
     8    4   75 1    
     9    5    6 1    
    10    5   35 1    
    11    5   76 1    
    12    6    7 1    
    13    6   77 1    
    14    6   78 1    
    15    7    8 1    
    16    8    9 1    
    17    8   79 1    
    18    8   80 1    
    19    9   10 ar   
    20    9   14 ar   
    21   10   11 ar   
    22   10   81 1    
    23   11   12 ar   
    24   11   71 1    
    25   12   13 ar   
    26   12   82 1    
    27   13   14 ar   
    28   13   15 1    
    29   14   83 1    
    30   15   16 1    
    31   15   84 1    
    32   15   85 1    
    33   16   17 1    
    34   17   18 1    
    35   17   86 1    
    36   17   87 1    
    37   18   19 1    
    38   18   37 1    
    39   18   88 1    
    40   19   20 am   BACKBONE|DICT|INTERRES
    41   19   89 1    
    42   20   21 2    
    43   20   22 1    
    44   22   23 1    
    45   22   24 1    
    46   22   90 1    
    47   23   91 1    
    48   23   92 1    
    49   23   93 1    
    50   24   25 am   BACKBONE|DICT|INTERRES
    51   24   94 1    
    52   25   26 2    
    53   25   27 1    
    54   27   28 1    
    55   27   29 1    
    56   27   95 1    
    57   28   96 1    
    58   28   97 1    
    59   28   98 1    
    60   29   30 am   BACKBONE|DICT|INTERRES
    61   29   99 1    
    62   30   31 2    
    63   30   32 1    
    64   32   33 1    
    65   32   34 1    
    66   32  100 1    
    67   33  101 1    
    68   33  102 1    
    69   33  103 1    
    70   34   35 am   BACKBONE|DICT|INTERRES
    71   34  104 1    
    72   35   36 2    
    73   37   38 2    
    74   37   39 am   BACKBONE|DICT|INTERRES
    75   39   40 1    
    76   39  105 1    
    77   40   41 1    
    78   40   42 1    
    79   40  106 1    
    80   41  107 1    
    81   41  108 1    
    82   41  109 1    
    83   42   43 2    
    84   42   44 am   BACKBONE|DICT|INTERRES
    85   44   45 1    
    86   44  110 1    
    87   45   46 1    
    88   45   47 1    
    89   45  111 1    
    90   46  112 1    
    91   46  113 1    
    92   46  114 1    
    93   47   48 2    
    94   47   49 am   BACKBONE|DICT|INTERRES
    95   49   50 1    
    96   49  115 1    
    97   50   51 1    
    98   50   52 1    
    99   50  116 1    
   100   51  117 1    
   101   51  118 1    
   102   51  119 1    
   103   52   53 2    
   104   52   54 am   BACKBONE|DICT|INTERRES
   105   54   55 1    
   106   54  120 1    
   107   55   56 1    
   108   55   57 1    
   109   55  121 1    
   110   56  122 1    
   111   56  123 1    
   112   56  124 1    
   113   57   58 2    
   114   57   59 am   BACKBONE|DICT|INTERRES
   115   59   60 1    
   116   59  125 1    
   117   60   61 1    
   118   60   62 1    
   119   60  126 1    
   120   61  127 1    
   121   61  128 1    
   122   61  129 1    
   123   62   63 2    
   124   62   64 am   BACKBONE|DICT|INTERRES
   125   64   65 1    
   126   64  130 1    
   127   65   66 1    
   128   65   69 1    
   129   65  131 1    
   130   66   67 am   BACKBONE|DICT|INTERRES
   131   66   68 2    
   132   67  132 1    
   133   67  133 1    
   134   69   70 1    
   135   69  134 1    
   136   69  135 1    
   137   70   71 1    
   138   71  136 1    
   139   71  137 1    
@<TRIPOS>SUBSTRUCTURE
     1 UNK         1 GROUP             0       ****    0 ROOT    
