@<TRIPOS>MOLECULE
3R137
137   139    1
SMALL
USER_CHARGES


@<TRIPOS>ATOM
      1 CA         28.5887   -2.3961    2.2987 C.3       0 UNK        -0.2020 
      2 C          28.3159   -1.2134    1.3815 C.2       0 UNK         0.4855 
      3 O          27.8976   -0.1568    1.8551 O.2       0 UNK        -0.5197 
      4 N          28.5538   -1.3819    0.0736 N.am      1 UNK        -0.4892 
      5 CA         28.3181   -0.3644   -0.9605 C.3       1 UNK         0.0835 
      6 C6         29.0129   -0.7524   -2.2899 C.3       12 UNK        -0.0855 
      7 S7         29.4619    0.6954   -3.3068 S.3       12 UNK        -0.2931 
      8 C8         31.2354    0.3820   -3.6180 C.3       12 UNK         0.0378 
      9 C9         31.4996   -0.9250   -4.3635 C.ar      12 UNK        -0.0802 
     10 C10        32.5771   -1.7333   -3.9882 C.ar      12 UNK        -0.0944 
     11 C11        32.8240   -2.9445   -4.6433 C.ar      12 UNK        -0.0787 
     12 C12        31.9573   -3.3673   -5.6541 C.ar      12 UNK        -0.0862 
     13 C13        30.8930   -2.5584   -6.0585 C.ar      12 UNK        -0.0733 
     14 C14        30.6836   -1.3310   -5.4247 C.ar      12 UNK        -0.0832 
     15 C15        29.9935   -2.9992   -7.2026 C.3       12 UNK         0.0240 
     16 S16        28.6426   -4.0872   -6.6429 S.3       12 UNK        -0.2522 
     17 C17        27.5415   -2.9143   -5.7843 C.3       12 UNK        -0.0967 
     18 CA         26.7109   -2.0544   -6.7786 C.3       5 UNK         0.0660 
     19 N          25.2758   -2.3783   -6.7412 N.am      5 UNK        -0.4015 
     20 C          24.3423   -1.8502   -7.5486 C.2       4 UNK         0.4946 
     21 O          24.5874   -0.9912   -8.3947 O.2       4 UNK        -0.5353 
     22 CA         22.8863   -2.3263   -7.3933 C.3       4 UNK         0.0277 
     23 CB         22.4611   -3.1282   -8.6346 C.3       4 UNK        -0.1981 
     24 N          22.6421   -3.1448   -6.2003 N.am      4 UNK        -0.4209 
     25 C          22.4513   -2.7336   -4.9379 C.2       3 UNK         0.4942 
     26 O          22.2208   -3.5398   -4.0361 O.2       3 UNK        -0.5208 
     27 CA         22.4828   -1.2253   -4.5955 C.3       3 UNK         0.0250 
     28 CB         21.0729   -0.6192   -4.6905 C.3       3 UNK        -0.1990 
     29 N          23.0022   -1.0042   -3.2436 N.am      3 UNK        -0.4232 
     30 C          24.2678   -1.2406   -2.8769 C.2       2 UNK         0.4993 
     31 O          25.1589   -1.5424   -3.6764 O.2       2 UNK        -0.5286 
     32 CA         24.5669   -1.1470   -1.3707 C.3       2 UNK         0.0209 
     33 CB         23.9275   -2.3270   -0.6179 C.3       2 UNK        -0.1931 
     34 N          26.0060   -1.1621   -1.1104 N.am      2 UNK        -0.4546 
     35 C          26.8121   -0.0941   -1.1739 C.2       1 UNK         0.5154 
     36 O          26.4121    1.0560   -1.3592 O.2       1 UNK        -0.5181 
     37 C          27.0037   -0.5485   -6.6065 C.2       5 UNK         0.5014 
     38 O          27.9114   -0.0317   -7.2595 O.2       5 UNK        -0.5248 
     39 N          26.1928    0.1391   -5.7919 N.am      6 UNK        -0.4434 
     40 CA         26.1878    1.5937   -5.6033 C.3       6 UNK         0.0363 
     41 CB         25.0718    1.9656   -4.6145 C.3       6 UNK        -0.1936 
     42 C          26.0356    2.4285   -6.8923 C.2       6 UNK         0.5081 
     43 O          26.4446    3.5891   -6.8920 O.2       6 UNK        -0.5248 
     44 N          25.4642    1.8527   -7.9627 N.am      7 UNK        -0.4718 
     45 CA         25.3708    2.4970   -9.2768 C.3       7 UNK         0.0273 
     46 CB         24.3002    1.7935  -10.1260 C.3       7 UNK        -0.1935 
     47 C          26.7187    2.5230  -10.0201 C.2       7 UNK         0.5018 
     48 O          26.9530    3.4472  -10.8000 O.2       7 UNK        -0.5186 
     49 N          27.5766    1.5240   -9.7669 N.am      8 UNK        -0.4240 
     50 CA         28.9497    1.4654  -10.2715 C.3       8 UNK         0.0235 
     51 CB         29.3780   -0.0010  -10.4499 C.3       8 UNK        -0.2000 
     52 C          29.9076    2.2023   -9.3246 C.2       8 UNK         0.4941 
     53 O          30.7630    2.9520   -9.7954 O.2       8 UNK        -0.5273 
     54 N          29.7316    1.9786   -8.0124 N.am      9 UNK        -0.4262 
     55 CA         30.4515    2.5947   -6.8907 C.3       9 UNK         0.0264 
     56 CB         30.1419    4.1042   -6.8079 C.3       9 UNK        -0.1955 
     57 C          31.9669    2.3027   -6.8603 C.2       9 UNK         0.5031 
     58 O          32.7181    3.0619   -6.2447 O.2       9 UNK        -0.5390 
     59 N          32.3930    1.2020   -7.4885 N.am      10 UNK        -0.4204 
     60 CA         33.7681    0.7166   -7.5243 C.3       10 UNK         0.0237 
     61 CB         34.5850    1.5016   -8.5677 C.3       10 UNK        -0.1985 
     62 C          33.7391   -0.7759   -7.8609 C.2       10 UNK         0.4970 
     63 O          32.8006   -1.2289   -8.5222 O.2       10 UNK        -0.4914 
     64 N          34.7705   -1.5008   -7.4137 N.am      11 UNK        -0.4285 
     65 CA         34.8960   -2.9584   -7.5791 C.3       11 UNK         0.1007 
     66 C          35.2957   -3.4275   -9.0088 C.2       11 UNK         0.5703 
     67 N          35.6657   -2.5396   -9.9243 N.am      11 UNK        -0.7361 
     68 O          35.2632   -4.6223   -9.2940 O.2       11 UNK        -0.4986 
     69 C69        35.8099   -3.6076   -6.5004 C.3       12 UNK        -0.0947 
     70 S70        35.5865   -2.9952   -4.7915 S.3       12 UNK        -0.2240 
     71 C71        34.0329   -3.7858   -4.2600 C.3       12 UNK         0.0194 
     72 H72        27.6740   -2.6908    2.8124 H         1 UNK         0.0906 
     73 H73        29.3292   -2.1247    3.0506 H         1 UNK         0.0906 
     74 H74        28.9634   -3.2609    1.7513 H         1 UNK         0.0906 
     75 H75        28.9086   -2.2703   -0.2517 H         1 UNK         0.3140 
     76 H76        28.7631    0.5646   -0.5957 H         1 UNK         0.1085 
     77 H77        28.3966   -1.4294   -2.8844 H         1 UNK         0.0836 
     78 H78        29.9270   -1.3084   -2.0755 H         1 UNK         0.0836 
     79 H79        31.6495    1.2099   -4.1919 H         1 UNK         0.0731 
     80 H80        31.7566    0.3861   -2.6592 H         1 UNK         0.0731 
     81 H81        33.2362   -1.4174   -3.1909 H         1 UNK         0.1312 
     82 H82        32.1272   -4.3128   -6.1506 H         1 UNK         0.1406 
     83 H83        29.8690   -0.6976   -5.7426 H         1 UNK         0.1631 
     84 H84        30.5882   -3.5326   -7.9457 H         1 UNK         0.0717 
     85 H85        29.5820   -2.1327   -7.7196 H         1 UNK         0.0717 
     86 H86        26.8884   -3.4951   -5.1307 H         1 UNK         0.0934 
     87 H87        28.1377   -2.3129   -5.0975 H         1 UNK         0.0934 
     88 H88        27.0244   -2.2855   -7.7990 H         1 UNK         0.0739 
     89 H89        24.9874   -3.0577   -6.0525 H         1 UNK         0.3093 
     90 H90        22.2577   -1.4354   -7.3518 H         1 UNK         0.0818 
     91 H91        22.5890   -2.5396   -9.5445 H         1 UNK         0.0819 
     92 H92        23.0508   -4.0385   -8.7513 H         1 UNK         0.0819 
     93 H93        21.4098   -3.4126   -8.5833 H         1 UNK         0.0819 
     94 H94        22.5981   -4.1398   -6.3684 H         1 UNK         0.3041 
     95 H95        23.1379   -0.6917   -5.2831 H         1 UNK         0.0784 
     96 H96        21.0852    0.4497   -4.4758 H         1 UNK         0.0793 
     97 H97        20.6553   -0.7416   -5.6904 H         1 UNK         0.0793 
     98 H98        20.3823   -1.0939   -3.9921 H         1 UNK         0.0793 
     99 H99        22.3187   -0.7972   -2.5299 H         1 UNK         0.3024 
    100 H100       24.1448   -0.2122   -0.9940 H         1 UNK         0.1171 
    101 H101       24.2937   -3.2863   -0.9863 H         1 UNK         0.0786 
    102 H102       24.1376   -2.2759    0.4508 H         1 UNK         0.0786 
    103 H103       22.8426   -2.3300   -0.7307 H         1 UNK         0.0786 
    104 H104       26.4289   -2.0679   -0.9737 H         1 UNK         0.2977 
    105 H105       25.5665   -0.4007   -5.2013 H         1 UNK         0.3127 
    106 H106       27.1478    1.8626   -5.1580 H         1 UNK         0.0770 
    107 H107       25.0551    3.0404   -4.4288 H         1 UNK         0.0814 
    108 H108       24.0877    1.6834   -4.9899 H         1 UNK         0.0814 
    109 H109       25.2176    1.4797   -3.6518 H         1 UNK         0.0814 
    110 H110       25.1544    0.8867   -7.9084 H         1 UNK         0.2983 
    111 H111       25.0558    3.5327   -9.1297 H         1 UNK         0.0947 
    112 H112       24.5839    0.7687  -10.3678 H         1 UNK         0.0806 
    113 H113       24.1482    2.3180  -11.0703 H         1 UNK         0.0806 
    114 H114       23.3392    1.7639   -9.6124 H         1 UNK         0.0806 
    115 H115       27.3207    0.8368   -9.0677 H         1 UNK         0.3000 
    116 H116       29.0001    1.9516  -11.2484 H         1 UNK         0.0850 
    117 H117       30.4005   -0.0657  -10.8248 H         1 UNK         0.0810 
    118 H118       28.7369   -0.5150  -11.1661 H         1 UNK         0.0810 
    119 H119       29.3411   -0.5550   -9.5123 H         1 UNK         0.0810 
    120 H120       29.0205    1.2981   -7.7450 H         1 UNK         0.3040 
    121 H121       30.0414    2.1306   -5.9931 H         1 UNK         0.0766 
    122 H122       30.5405    4.5375   -5.8899 H         1 UNK         0.0812 
    123 H123       29.0683    4.2900   -6.8101 H         1 UNK         0.0812 
    124 H124       30.5789    4.6521   -7.6431 H         1 UNK         0.0812 
    125 H125       31.7271    0.5954   -7.9507 H         1 UNK         0.3205 
    126 H126       34.2132    0.8410   -6.5346 H         1 UNK         0.0754 
    127 H127       35.6127    1.1399   -8.6176 H         1 UNK         0.0769 
    128 H128       34.6293    2.5628   -8.3218 H         1 UNK         0.0769 
    129 H129       34.1540    1.4093   -9.5657 H         1 UNK         0.0769 
    130 H130       35.5043   -1.0535   -6.8848 H         1 UNK         0.2981 
    131 H131       33.9013   -3.3755   -7.4362 H         1 UNK         0.0541 
    132 H132       35.9177   -2.8573  -10.8468 H         1 UNK         0.3459 
    133 H133       35.6889   -1.5577   -9.7031 H         1 UNK         0.3459 
    134 H134       36.8575   -3.4364   -6.7550 H         1 UNK         0.0612 
    135 H135       35.6786   -4.6912   -6.4965 H         1 UNK         0.0612 
    136 H136       34.0535   -3.9032   -3.1757 H         1 UNK         0.0624 
    137 H137       33.9661   -4.7918   -4.6768 H         1 UNK         0.0624 
@<TRIPOS>BOND
     1    1    2 1    
     2    1   72 1    
     3    1   73 1    
     4    1   74 1    
     5    2    3 2    
     6    2    4 am   BACKBONE|DICT|INTERRES
     7    4    5 1    
     8    4   75 1    
     9    5    6 1    
    10    5   35 1    
    11    5   76 1    
    12    6    7 1    
    13    6   77 1    
    14    6   78 1    
    15    7    8 1    
    16    8    9 1    
    17    8   79 1    
    18    8   80 1    
    19    9   10 ar   
    20    9   14 ar   
    21   10   11 ar   
    22   10   81 1    
    23   11   12 ar   
    24   11   71 1    
    25   12   13 ar   
    26   12   82 1    
    27   13   14 ar   
    28   13   15 1    
    29   14   83 1    
    30   15   16 1    
    31   15   84 1    
    32   15   85 1    
    33   16   17 1    
    34   17   18 1    
    35   17   86 1    
    36   17   87 1    
    37   18   19 1    
    38   18   37 1    
    39   18   88 1    
    40   19   20 am   BACKBONE|DICT|INTERRES
    41   19   89 1    
    42   20   21 2    
    43   20   22 1    
    44   22   23 1    
    45   22   24 1    
    46   22   90 1    
    47   23   91 1    
    48   23   92 1    
    49   23   93 1    
    50   24   25 am   BACKBONE|DICT|INTERRES
    51   24   94 1    
    52   25   26 2    
    53   25   27 1    
    54   27   28 1    
    55   27   29 1    
    56   27   95 1    
    57   28   96 1    
    58   28   97 1    
    59   28   98 1    
    60   29   30 am   BACKBONE|DICT|INTERRES
    61   29   99 1    
    62   30   31 2    
    63   30   32 1    
    64   32   33 1    
    65   32   34 1    
    66   32  100 1    
    67   33  101 1    
    68   33  102 1    
    69   33  103 1    
    70   34   35 am   BACKBONE|DICT|INTERRES
    71   34  104 1    
    72   35   36 2    
    73   37   38 2    
    74   37   39 am   BACKBONE|DICT|INTERRES
    75   39   40 1    
    76   39  105 1    
    77   40   41 1    
    78   40   42 1    
    79   40  106 1    
    80   41  107 1    
    81   41  108 1    
    82   41  109 1    
    83   42   43 2    
    84   42   44 am   BACKBONE|DICT|INTERRES
    85   44   45 1    
    86   44  110 1    
    87   45   46 1    
    88   45   47 1    
    89   45  111 1    
    90   46  112 1    
    91   46  113 1    
    92   46  114 1    
    93   47   48 2    
    94   47   49 am   BACKBONE|DICT|INTERRES
    95   49   50 1    
    96   49  115 1    
    97   50   51 1    
    98   50   52 1    
    99   50  116 1    
   100   51  117 1    
   101   51  118 1    
   102   51  119 1    
   103   52   53 2    
   104   52   54 am   BACKBONE|DICT|INTERRES
   105   54   55 1    
   106   54  120 1    
   107   55   56 1    
   108   55   57 1    
   109   55  121 1    
   110   56  122 1    
   111   56  123 1    
   112   56  124 1    
   113   57   58 2    
   114   57   59 am   BACKBONE|DICT|INTERRES
   115   59   60 1    
   116   59  125 1    
   117   60   61 1    
   118   60   62 1    
   119   60  126 1    
   120   61  127 1    
   121   61  128 1    
   122   61  129 1    
   123   62   63 2    
   124   62   64 am   BACKBONE|DICT|INTERRES
   125   64   65 1    
   126   64  130 1    
   127   65   66 1    
   128   65   69 1    
   129   65  131 1    
   130   66   67 am   BACKBONE|DICT|INTERRES
   131   66   68 2    
   132   67  132 1    
   133   67  133 1    
   134   69   70 1    
   135   69  134 1    
   136   69  135 1    
   137   70   71 1    
   138   71  136 1    
   139   71  137 1    
@<TRIPOS>SUBSTRUCTURE
     1 UNK         1 GROUP             0       ****    0 ROOT    
