@<TRIPOS>MOLECULE
3R137
137   139    1
SMALL
USER_CHARGES


@<TRIPOS>ATOM
      1 CA         26.6565   -6.7878    2.2898 C.3       0 UNK        -0.2020 
      2 C          27.2719   -5.4200    2.0335 C.2       0 UNK         0.4855 
      3 O          28.1676   -5.0051    2.7694 O.2       0 UNK        -0.5197 
      4 N          26.7981   -4.7175    0.9989 N.am      1 UNK        -0.4892 
      5 CA         27.2401   -3.3725    0.6261 C.3       1 UNK         0.0835 
      6 C6         28.5943   -3.3736   -0.1333 C.3       12 UNK        -0.0855 
      7 S7         29.4305   -1.7511   -0.1231 S.3       12 UNK        -0.2931 
      8 C8         28.8846   -1.0021   -1.6917 C.3       12 UNK         0.0378 
      9 C9         29.6321   -1.5470   -2.9013 C.ar      12 UNK        -0.0802 
     10 C10        30.7860   -0.9056   -3.3585 C.ar      12 UNK        -0.0944 
     11 C11        31.4687   -1.3830   -4.4814 C.ar      12 UNK        -0.0787 
     12 C12        30.9995   -2.5247   -5.1404 C.ar      12 UNK        -0.0862 
     13 C13        29.8502   -3.1815   -4.6872 C.ar      12 UNK        -0.0733 
     14 C14        29.1614   -2.6737   -3.5812 C.ar      12 UNK        -0.0832 
     15 C15        29.3835   -4.4711   -5.3524 C.3       12 UNK         0.0240 
     16 S16        28.4224   -4.1933   -6.8733 S.3       12 UNK        -0.2522 
     17 C17        26.8842   -3.4459   -6.2317 C.3       12 UNK        -0.0967 
     18 CA         26.4746   -2.1675   -6.9993 C.3       5 UNK         0.0660 
     19 N          25.1305   -1.7172   -6.6385 N.am      5 UNK        -0.4015 
     20 C          24.4122   -0.8366   -7.3507 C.2       4 UNK         0.4946 
     21 O          24.7785   -0.3604   -8.4249 O.2       4 UNK        -0.5353 
     22 CA         23.0841   -0.3700   -6.7320 C.3       4 UNK         0.0277 
     23 CB         21.9644   -1.3840   -7.0158 C.3       4 UNK        -0.1981 
     24 N          23.1931   -0.1413   -5.2887 N.am      4 UNK        -0.4209 
     25 C          23.9618    0.8073   -4.7332 C.2       3 UNK         0.4942 
     26 O          24.5923    1.6396   -5.3838 O.2       3 UNK        -0.5208 
     27 CA         24.0811    0.8041   -3.1992 C.3       3 UNK         0.0250 
     28 CB         23.0205    1.7252   -2.5761 C.3       3 UNK        -0.1990 
     29 N          23.9853   -0.5315   -2.5982 N.am      3 UNK        -0.4232 
     30 C          24.8529   -1.5311   -2.8091 C.2       2 UNK         0.4993 
     31 O          25.8195   -1.4537   -3.5717 O.2       2 UNK        -0.5286 
     32 CA         24.5590   -2.8616   -2.0961 C.3       2 UNK         0.0209 
     33 CB         24.2200   -3.9548   -3.1236 C.3       2 UNK        -0.1931 
     34 N          25.6789   -3.3121   -1.2649 N.am      2 UNK        -0.4546 
     35 C          26.1002   -2.6925   -0.1507 C.2       1 UNK         0.5154 
     36 O          25.5842   -1.6677    0.2971 O.2       1 UNK        -0.5181 
     37 C          27.4924   -1.0202   -6.8527 C.2       5 UNK         0.5014 
     38 O          28.2927   -0.8245   -7.7642 O.2       5 UNK        -0.5248 
     39 N          27.3992   -0.2428   -5.7623 N.am      6 UNK        -0.4434 
     40 CA         28.2292    0.9435   -5.5157 C.3       6 UNK         0.0363 
     41 CB         27.8571    1.5633   -4.1593 C.3       6 UNK        -0.1936 
     42 C          28.1275    2.0101   -6.6233 C.2       6 UNK         0.5081 
     43 O          29.1255    2.6588   -6.9353 O.2       6 UNK        -0.5248 
     44 N          26.9257    2.1746   -7.1922 N.am      7 UNK        -0.4718 
     45 CA         26.6655    3.0498   -8.3335 C.3       7 UNK         0.0273 
     46 CB         25.1590    3.3464   -8.4120 C.3       7 UNK        -0.1935 
     47 C          27.1737    2.4615   -9.6617 C.2       7 UNK         0.5018 
     48 O          27.7172    3.2075  -10.4775 O.2       7 UNK        -0.5186 
     49 N          26.9565    1.1559   -9.8744 N.am      8 UNK        -0.4240 
     50 CA         27.2789    0.4593  -11.1217 C.3       8 UNK         0.0235 
     51 CB         26.4587   -0.8382  -11.2101 C.3       8 UNK        -0.2000 
     52 C          28.7755    0.1564  -11.3023 C.2       8 UNK         0.4941 
     53 O          29.2863    0.3125  -12.4131 O.2       8 UNK        -0.5273 
     54 N          29.4399   -0.3164  -10.2405 N.am      9 UNK        -0.4262 
     55 CA         30.8365   -0.7524  -10.2655 C.3       9 UNK         0.0264 
     56 CB         31.1073   -1.6523   -9.0473 C.3       9 UNK        -0.1955 
     57 C          31.8179    0.4286  -10.2856 C.2       9 UNK         0.5031 
     58 O          31.5268    1.4978   -9.7439 O.2       9 UNK        -0.5390 
     59 N          33.0004    0.1903  -10.8651 N.am      10 UNK        -0.4204 
     60 CA         34.1321    1.1172  -10.8696 C.3       10 UNK         0.0237 
     61 CB         35.0071    0.8348  -12.1060 C.3       10 UNK        -0.1985 
     62 C          34.9138    0.9992   -9.5488 C.2       10 UNK         0.4970 
     63 O          36.0228    0.4617   -9.5345 O.2       10 UNK        -0.4914 
     64 N          34.2985    1.4681   -8.4568 N.am      11 UNK        -0.4285 
     65 CA         34.8471    1.4202   -7.0905 C.3       11 UNK         0.1007 
     66 C          36.1107    2.3000   -6.8540 C.2       11 UNK         0.5703 
     67 N          36.4195    3.2681   -7.7091 N.am      11 UNK        -0.7361 
     68 O          36.8255    2.0953   -5.8756 O.2       11 UNK        -0.4986 
     69 C69        33.7677    1.7349   -6.0219 C.3       12 UNK        -0.0947 
     70 S70        32.2924    0.6678   -6.1264 S.3       12 UNK        -0.2240 
     71 C71        32.7182   -0.6633   -4.9640 C.3       12 UNK         0.0194 
     72 H72        27.4244   -7.5594    2.2404 H         1 UNK         0.0906 
     73 H73        26.2077   -6.8171    3.2824 H         1 UNK         0.0906 
     74 H74        25.8839   -7.0323    1.5611 H         1 UNK         0.0906 
     75 H75        26.0229   -5.0841    0.4625 H         1 UNK         0.3140 
     76 H76        27.3689   -2.8035    1.5504 H         1 UNK         0.1085 
     77 H77        29.2829   -4.0620    0.3587 H         1 UNK         0.0836 
     78 H78        28.4902   -3.7619   -1.1437 H         1 UNK         0.0836 
     79 H79        27.8111   -1.1327   -1.8194 H         1 UNK         0.0731 
     80 H80        29.0467    0.0740   -1.6181 H         1 UNK         0.0731 
     81 H81        31.1499   -0.0262   -2.8448 H         1 UNK         0.1312 
     82 H82        31.5311   -2.9061   -6.0015 H         1 UNK         0.1406 
     83 H83        28.2590   -3.1615   -3.2438 H         1 UNK         0.1631 
     84 H84        28.7900   -5.0683   -4.6582 H         1 UNK         0.0717 
     85 H85        30.2538   -5.0803   -5.6009 H         1 UNK         0.0717 
     86 H86        26.0988   -4.1976   -6.3247 H         1 UNK         0.0934 
     87 H87        26.9719   -3.2416   -5.1662 H         1 UNK         0.0934 
     88 H88        26.4422   -2.4279   -8.0598 H         1 UNK         0.0739 
     89 H89        24.7868   -2.0061   -5.7349 H         1 UNK         0.3093 
     90 H90        22.8155    0.5781   -7.2035 H         1 UNK         0.0818 
     91 H91        21.0018   -1.0234   -6.6526 H         1 UNK         0.0819 
     92 H92        21.8593   -1.5563   -8.0880 H         1 UNK         0.0819 
     93 H93        22.1599   -2.3499   -6.5484 H         1 UNK         0.0819 
     94 H94        22.6863   -0.7676   -4.6805 H         1 UNK         0.3041 
     95 H95        25.0656    1.2035   -2.9488 H         1 UNK         0.0784 
     96 H96        23.0883    2.7327   -2.9896 H         1 UNK         0.0793 
     97 H97        22.0085    1.3637   -2.7632 H         1 UNK         0.0793 
     98 H98        23.1536    1.8113   -1.4974 H         1 UNK         0.0793 
     99 H99        23.2211   -0.6778   -1.9539 H         1 UNK         0.3024 
    100 H100       23.6928   -2.7290   -1.4436 H         1 UNK         0.1171 
    101 H101       23.3857   -3.6530   -3.7583 H         1 UNK         0.0786 
    102 H102       23.9286   -4.8833   -2.6321 H         1 UNK         0.0786 
    103 H103       25.0651   -4.1744   -3.7767 H         1 UNK         0.0786 
    104 H104       26.1693   -4.1348   -1.5827 H         1 UNK         0.2977 
    105 H105       26.7437   -0.5079   -5.0325 H         1 UNK         0.3127 
    106 H106       29.2642    0.5993   -5.4703 H         1 UNK         0.0770 
    107 H107       26.9374    2.1454   -4.2178 H         1 UNK         0.0814 
    108 H108       28.6432    2.2365   -3.8163 H         1 UNK         0.0814 
    109 H109       27.7136    0.8042   -3.3946 H         1 UNK         0.0814 
    110 H110       26.1365    1.6650   -6.8090 H         1 UNK         0.2983 
    111 H111       27.1878    3.9950   -8.1684 H         1 UNK         0.0947 
    112 H112       24.9354    4.0167   -9.2429 H         1 UNK         0.0806 
    113 H113       24.8027    3.8273   -7.5007 H         1 UNK         0.0806 
    114 H114       24.5745    2.4371   -8.5581 H         1 UNK         0.0806 
    115 H115       26.4685    0.6196   -9.1646 H         1 UNK         0.3000 
    116 H116       26.9740    1.0997  -11.9525 H         1 UNK         0.0850 
    117 H117       26.6647   -1.3700  -12.1400 H         1 UNK         0.0810 
    118 H118       25.3883   -0.6326  -11.1843 H         1 UNK         0.0810 
    119 H119       26.6881   -1.5159  -10.3871 H         1 UNK         0.0810 
    120 H120       28.9590   -0.3988   -9.3437 H         1 UNK         0.3040 
    121 H121       30.9889   -1.3463  -11.1694 H         1 UNK         0.0766 
    122 H122       32.1323   -2.0246   -9.0466 H         1 UNK         0.0812 
    123 H123       30.4454   -2.5186   -9.0376 H         1 UNK         0.0812 
    124 H124       30.9565   -1.1131   -8.1116 H         1 UNK         0.0812 
    125 H125       33.1740   -0.7271  -11.2510 H         1 UNK         0.3205 
    126 H126       33.7644    2.1426  -10.9504 H         1 UNK         0.0754 
    127 H127       35.8615    1.5122  -12.1415 H         1 UNK         0.0769 
    128 H128       34.4446    0.9769  -13.0290 H         1 UNK         0.0769 
    129 H129       35.3978   -0.1837  -12.1057 H         1 UNK         0.0769 
    130 H130       33.3573    1.8311   -8.5522 H         1 UNK         0.2981 
    131 H131       35.1717    0.3912   -6.9246 H         1 UNK         0.0541 
    132 H132       35.8379    3.4466   -8.5117 H         1 UNK         0.3459 
    133 H133       37.2418    3.8274   -7.5458 H         1 UNK         0.3459 
    134 H134       33.4302    2.7674   -6.1283 H         1 UNK         0.0612 
    135 H135       34.1848    1.6615   -5.0160 H         1 UNK         0.0612 
    136 H136       33.4007   -1.3612   -5.4512 H         1 UNK         0.0624 
    137 H137       33.2534   -0.2540   -4.1061 H         1 UNK         0.0624 
@<TRIPOS>BOND
     1    1    2 1    
     2    1   72 1    
     3    1   73 1    
     4    1   74 1    
     5    2    3 2    
     6    2    4 am   BACKBONE|DICT|INTERRES
     7    4    5 1    
     8    4   75 1    
     9    5    6 1    
    10    5   35 1    
    11    5   76 1    
    12    6    7 1    
    13    6   77 1    
    14    6   78 1    
    15    7    8 1    
    16    8    9 1    
    17    8   79 1    
    18    8   80 1    
    19    9   10 ar   
    20    9   14 ar   
    21   10   11 ar   
    22   10   81 1    
    23   11   12 ar   
    24   11   71 1    
    25   12   13 ar   
    26   12   82 1    
    27   13   14 ar   
    28   13   15 1    
    29   14   83 1    
    30   15   16 1    
    31   15   84 1    
    32   15   85 1    
    33   16   17 1    
    34   17   18 1    
    35   17   86 1    
    36   17   87 1    
    37   18   19 1    
    38   18   37 1    
    39   18   88 1    
    40   19   20 am   BACKBONE|DICT|INTERRES
    41   19   89 1    
    42   20   21 2    
    43   20   22 1    
    44   22   23 1    
    45   22   24 1    
    46   22   90 1    
    47   23   91 1    
    48   23   92 1    
    49   23   93 1    
    50   24   25 am   BACKBONE|DICT|INTERRES
    51   24   94 1    
    52   25   26 2    
    53   25   27 1    
    54   27   28 1    
    55   27   29 1    
    56   27   95 1    
    57   28   96 1    
    58   28   97 1    
    59   28   98 1    
    60   29   30 am   BACKBONE|DICT|INTERRES
    61   29   99 1    
    62   30   31 2    
    63   30   32 1    
    64   32   33 1    
    65   32   34 1    
    66   32  100 1    
    67   33  101 1    
    68   33  102 1    
    69   33  103 1    
    70   34   35 am   BACKBONE|DICT|INTERRES
    71   34  104 1    
    72   35   36 2    
    73   37   38 2    
    74   37   39 am   BACKBONE|DICT|INTERRES
    75   39   40 1    
    76   39  105 1    
    77   40   41 1    
    78   40   42 1    
    79   40  106 1    
    80   41  107 1    
    81   41  108 1    
    82   41  109 1    
    83   42   43 2    
    84   42   44 am   BACKBONE|DICT|INTERRES
    85   44   45 1    
    86   44  110 1    
    87   45   46 1    
    88   45   47 1    
    89   45  111 1    
    90   46  112 1    
    91   46  113 1    
    92   46  114 1    
    93   47   48 2    
    94   47   49 am   BACKBONE|DICT|INTERRES
    95   49   50 1    
    96   49  115 1    
    97   50   51 1    
    98   50   52 1    
    99   50  116 1    
   100   51  117 1    
   101   51  118 1    
   102   51  119 1    
   103   52   53 2    
   104   52   54 am   BACKBONE|DICT|INTERRES
   105   54   55 1    
   106   54  120 1    
   107   55   56 1    
   108   55   57 1    
   109   55  121 1    
   110   56  122 1    
   111   56  123 1    
   112   56  124 1    
   113   57   58 2    
   114   57   59 am   BACKBONE|DICT|INTERRES
   115   59   60 1    
   116   59  125 1    
   117   60   61 1    
   118   60   62 1    
   119   60  126 1    
   120   61  127 1    
   121   61  128 1    
   122   61  129 1    
   123   62   63 2    
   124   62   64 am   BACKBONE|DICT|INTERRES
   125   64   65 1    
   126   64  130 1    
   127   65   66 1    
   128   65   69 1    
   129   65  131 1    
   130   66   67 am   BACKBONE|DICT|INTERRES
   131   66   68 2    
   132   67  132 1    
   133   67  133 1    
   134   69   70 1    
   135   69  134 1    
   136   69  135 1    
   137   70   71 1    
   138   71  136 1    
   139   71  137 1    
@<TRIPOS>SUBSTRUCTURE
     1 UNK         1 GROUP             0       ****    0 ROOT    
