@<TRIPOS>MOLECULE
3R137
137   139    1
SMALL
USER_CHARGES


@<TRIPOS>ATOM
      1 CA         26.3603   -5.0359   -0.8717 C.3       0 UNK        -0.2020 
      2 C          26.9038   -3.6164   -0.8037 C.2       0 UNK         0.4855 
      3 O          26.9190   -2.9269   -1.8215 O.2       0 UNK        -0.5197 
      4 N          27.3466   -3.1875    0.3874 N.am      1 UNK        -0.4892 
      5 CA         27.8640   -1.8537    0.7284 C.3       1 UNK         0.0835 
      6 C6         29.3858   -1.6611    0.4273 C.3       12 UNK        -0.0855 
      7 S7         29.9103   -1.6276   -1.3251 S.3       12 UNK        -0.2931 
      8 C8         30.4743   -3.3350   -1.5904 C.3       12 UNK         0.0378 
      9 C9         30.4950   -3.6747   -3.0737 C.ar      12 UNK        -0.0802 
     10 C10        31.5809   -3.2989   -3.8678 C.ar      12 UNK        -0.0944 
     11 C11        31.6086   -3.6145   -5.2297 C.ar      12 UNK        -0.0787 
     12 C12        30.5365   -4.3139   -5.7988 C.ar      12 UNK        -0.0862 
     13 C13        29.4509   -4.7114   -5.0099 C.ar      12 UNK        -0.0733 
     14 C14        29.4339   -4.3779   -3.6523 C.ar      12 UNK        -0.0832 
     15 C15        28.3312   -5.5696   -5.5878 C.3       12 UNK         0.0240 
     16 S16        26.8003   -4.6304   -5.9020 S.3       12 UNK        -0.2522 
     17 C17        26.8670   -4.3576   -7.7124 C.3       12 UNK        -0.0967 
     18 CA         26.5719   -2.9018   -8.1563 C.3       5 UNK         0.0660 
     19 N          25.3038   -2.3911   -7.6239 N.am      5 UNK        -0.4015 
     20 C          24.7284   -1.2369   -7.9921 C.2       4 UNK         0.4946 
     21 O          25.1726   -0.4989   -8.8701 O.2       4 UNK        -0.5353 
     22 CA         23.4644   -0.8021   -7.2290 C.3       4 UNK         0.0277 
     23 CB         22.2104   -1.4100   -7.8773 C.3       4 UNK        -0.1981 
     24 N          23.4782   -1.1145   -5.7949 N.am      4 UNK        -0.4209 
     25 C          24.4280   -0.7345   -4.9282 C.2       3 UNK         0.4942 
     26 O          25.4381   -0.1085   -5.2591 O.2       3 UNK        -0.5208 
     27 CA         24.2135   -1.1567   -3.4623 C.3       3 UNK         0.0250 
     28 CB         24.1770   -2.6898   -3.3308 C.3       3 UNK        -0.1990 
     29 N          25.2599   -0.6210   -2.5854 N.am      3 UNK        -0.4232 
     30 C          25.3239    0.6569   -2.1799 C.2       2 UNK         0.4993 
     31 O          24.4268    1.4763   -2.3919 O.2       2 UNK        -0.5286 
     32 CA         26.6018    1.1147   -1.4429 C.3       2 UNK         0.0209 
     33 CB         26.3498    2.2989   -0.4840 C.3       2 UNK        -0.1931 
     34 N          27.3287    0.0349   -0.7649 N.am      2 UNK        -0.4546 
     35 C          26.9174   -0.7208    0.2614 C.2       1 UNK         0.5154 
     36 O          25.8339   -0.5774    0.8321 O.2       1 UNK        -0.5181 
     37 C          27.7510   -1.9604   -7.8494 C.2       5 UNK         0.5014 
     38 O          28.4944   -1.5994   -8.7628 O.2       5 UNK        -0.5248 
     39 N          27.8652   -1.5544   -6.5782 N.am      6 UNK        -0.4434 
     40 CA         28.8826   -0.6364   -6.0770 C.3       6 UNK         0.0363 
     41 CB         28.7953   -0.5608   -4.5467 C.3       6 UNK        -0.1936 
     42 C          28.7574    0.7591   -6.6972 C.2       6 UNK         0.5081 
     43 O          29.7734    1.3505   -7.0583 O.2       6 UNK        -0.5248 
     44 N          27.5150    1.2405   -6.8381 N.am      7 UNK        -0.4718 
     45 CA         27.1819    2.5036   -7.4942 C.3       7 UNK         0.0273 
     46 CB         25.6963    2.8254   -7.2676 C.3       7 UNK        -0.1935 
     47 C          27.5254    2.5024   -8.9933 C.2       7 UNK         0.5018 
     48 O          28.1442    3.4566   -9.4649 O.2       7 UNK        -0.5186 
     49 N          27.1387    1.4353   -9.7091 N.am      8 UNK        -0.4240 
     50 CA         27.3844    1.2674  -11.1443 C.3       8 UNK         0.0235 
     51 CB         26.5755    0.0748  -11.6795 C.3       8 UNK        -0.2000 
     52 C          28.8722    1.1055  -11.4895 C.2       8 UNK         0.4941 
     53 O          29.3419    1.7374  -12.4368 O.2       8 UNK        -0.5273 
     54 N          29.5872    0.2722  -10.7213 N.am      9 UNK        -0.4262 
     55 CA         31.0188    0.0172  -10.9060 C.3       9 UNK         0.0264 
     56 CB         31.3600   -1.3585  -10.3147 C.3       9 UNK        -0.1955 
     57 C          31.9262    1.1141  -10.3159 C.2       9 UNK         0.5031 
     58 O          33.1195    1.1177  -10.6226 O.2       9 UNK        -0.5390 
     59 N          31.3604    2.0107   -9.4924 N.am      10 UNK        -0.4204 
     60 CA         32.0214    3.0906   -8.7487 C.3       10 UNK         0.0237 
     61 CB         32.5960    4.1572   -9.7058 C.3       10 UNK        -0.1985 
     62 C          33.0539    2.5489   -7.7406 C.2       10 UNK         0.4970 
     63 O          34.1930    3.0193   -7.7002 O.2       10 UNK        -0.4914 
     64 N          32.6310    1.5481   -6.9606 N.am      11 UNK        -0.4285 
     65 CA         33.4340    0.8836   -5.9255 C.3       11 UNK         0.1007 
     66 C          33.6902    1.7981   -4.6970 C.2       11 UNK         0.5703 
     67 N          34.8138    1.6173   -4.0158 N.am      11 UNK        -0.7361 
     68 O          32.8705    2.6403   -4.3338 O.2       11 UNK        -0.4986 
     69 C69        32.8009   -0.4632   -5.4901 C.3       12 UNK        -0.0947 
     70 S70        32.6374   -1.6294   -6.8830 S.3       12 UNK        -0.2240 
     71 C71        32.8233   -3.2444   -6.0700 C.3       12 UNK         0.0194 
     72 H72        25.3304   -5.0243   -1.2270 H         1 UNK         0.0906 
     73 H73        26.9503   -5.6340   -1.5648 H         1 UNK         0.0906 
     74 H74        26.3776   -5.5281    0.1004 H         1 UNK         0.0906 
     75 H75        27.2727   -3.8163    1.1751 H         1 UNK         0.3140 
     76 H76        27.7866   -1.8142    1.8166 H         1 UNK         0.1085 
     77 H77        29.9527   -2.4393    0.9406 H         1 UNK         0.0836 
     78 H78        29.7233   -0.7273    0.8806 H         1 UNK         0.0836 
     79 H79        31.4700   -3.4575   -1.1617 H         1 UNK         0.0731 
     80 H80        29.8232   -4.0282   -1.0569 H         1 UNK         0.0731 
     81 H81        32.4070   -2.7631   -3.4213 H         1 UNK         0.1312 
     82 H82        30.5627   -4.5729   -6.8483 H         1 UNK         0.1406 
     83 H83        28.5930   -4.6766   -3.0438 H         1 UNK         0.1631 
     84 H84        28.0980   -6.3639   -4.8772 H         1 UNK         0.0717 
     85 H85        28.6616   -6.0798   -6.4935 H         1 UNK         0.0717 
     86 H86        27.8325   -4.6787   -8.1079 H         1 UNK         0.0934 
     87 H87        26.1349   -5.0258   -8.1684 H         1 UNK         0.0934 
     88 H88        26.4672   -2.9146   -9.2436 H         1 UNK         0.0739 
     89 H89        24.8817   -2.9304   -6.8826 H         1 UNK         0.3093 
     90 H90        23.3959    0.2839   -7.3162 H         1 UNK         0.0818 
     91 H91        21.2990   -1.0170   -7.4263 H         1 UNK         0.0819 
     92 H92        22.1688   -1.1742   -8.9418 H         1 UNK         0.0819 
     93 H93        22.1915   -2.4966   -7.7836 H         1 UNK         0.0819 
     94 H94        22.6826   -1.6264   -5.4413 H         1 UNK         0.3041 
     95 H95        23.2504   -0.7592   -3.1355 H         1 UNK         0.0784 
     96 H96        23.3351   -3.1214   -3.8726 H         1 UNK         0.0793 
     97 H97        25.0857   -3.1490   -3.7221 H         1 UNK         0.0793 
     98 H98        24.0718   -2.9926   -2.2890 H         1 UNK         0.0793 
     99 H99        26.0228   -1.2544   -2.3589 H         1 UNK         0.3024 
    100 H100       27.2698    1.4728   -2.2279 H         1 UNK         0.1171 
    101 H101       25.9623    3.1642   -1.0232 H         1 UNK         0.0786 
    102 H102       27.2696    2.6136    0.0088 H         1 UNK         0.0786 
    103 H103       25.6228    2.0475    0.2886 H         1 UNK         0.0786 
    104 H104       28.2153   -0.2317   -1.1804 H         1 UNK         0.2977 
    105 H105       27.1845   -1.8817   -5.9078 H         1 UNK         0.3127 
    106 H106       29.8544   -1.0470   -6.3510 H         1 UNK         0.0770 
    107 H107       29.6012    0.0481   -4.1365 H         1 UNK         0.0814 
    108 H108       28.8756   -1.5516   -4.1023 H         1 UNK         0.0814 
    109 H109       27.8549   -0.1245   -4.2116 H         1 UNK         0.0814 
    110 H110       26.7439    0.6946   -6.4603 H         1 UNK         0.2983 
    111 H111       27.7760    3.2877   -7.0198 H         1 UNK         0.0947 
    112 H112       25.4348    3.7893   -7.7061 H         1 UNK         0.0806 
    113 H113       25.4592    2.8756   -6.2046 H         1 UNK         0.0806 
    114 H114       25.0471    2.0747   -7.7183 H         1 UNK         0.0806 
    115 H115       26.5947    0.7050   -9.2539 H         1 UNK         0.3000 
    116 H116       27.0273    2.1686  -11.6475 H         1 UNK         0.0850 
    117 H117       26.7466   -0.0686  -12.7472 H         1 UNK         0.0810 
    118 H118       25.5053    0.2295  -11.5412 H         1 UNK         0.0810 
    119 H119       26.8457   -0.8543  -11.1755 H         1 UNK         0.0810 
    120 H120       29.1219   -0.2497   -9.9802 H         1 UNK         0.3040 
    121 H121       31.2301   -0.0235  -11.9768 H         1 UNK         0.0766 
    122 H122       32.4257   -1.5757  -10.3984 H         1 UNK         0.0812 
    123 H123       30.8231   -2.1549  -10.8299 H         1 UNK         0.0812 
    124 H124       31.0956   -1.4113   -9.2598 H         1 UNK         0.0812 
    125 H125       30.3824    1.8783   -9.2676 H         1 UNK         0.3205 
    126 H126       31.2408    3.5703   -8.1561 H         1 UNK         0.0754 
    127 H127       32.9801    5.0128   -9.1492 H         1 UNK         0.0769 
    128 H128       31.8304    4.5303  -10.3862 H         1 UNK         0.0769 
    129 H129       33.4175    3.7661  -10.3067 H         1 UNK         0.0769 
    130 H130       31.6525    1.2779   -7.0173 H         1 UNK         0.2981 
    131 H131       34.4058    0.6630   -6.3720 H         1 UNK         0.0541 
    132 H132       35.4895    0.9241   -4.2971 H         1 UNK         0.3459 
    133 H133       34.9931    2.1916   -3.2070 H         1 UNK         0.3459 
    134 H134       31.8168   -0.3052   -5.0478 H         1 UNK         0.0612 
    135 H135       33.4143   -0.9313   -4.7186 H         1 UNK         0.0612 
    136 H136       33.7274   -3.2448   -5.4592 H         1 UNK         0.0624 
    137 H137       32.9797   -4.0019   -6.8393 H         1 UNK         0.0624 
@<TRIPOS>BOND
     1    1    2 1    
     2    1   72 1    
     3    1   73 1    
     4    1   74 1    
     5    2    3 2    
     6    2    4 am   BACKBONE|DICT|INTERRES
     7    4    5 1    
     8    4   75 1    
     9    5    6 1    
    10    5   35 1    
    11    5   76 1    
    12    6    7 1    
    13    6   77 1    
    14    6   78 1    
    15    7    8 1    
    16    8    9 1    
    17    8   79 1    
    18    8   80 1    
    19    9   10 ar   
    20    9   14 ar   
    21   10   11 ar   
    22   10   81 1    
    23   11   12 ar   
    24   11   71 1    
    25   12   13 ar   
    26   12   82 1    
    27   13   14 ar   
    28   13   15 1    
    29   14   83 1    
    30   15   16 1    
    31   15   84 1    
    32   15   85 1    
    33   16   17 1    
    34   17   18 1    
    35   17   86 1    
    36   17   87 1    
    37   18   19 1    
    38   18   37 1    
    39   18   88 1    
    40   19   20 am   BACKBONE|DICT|INTERRES
    41   19   89 1    
    42   20   21 2    
    43   20   22 1    
    44   22   23 1    
    45   22   24 1    
    46   22   90 1    
    47   23   91 1    
    48   23   92 1    
    49   23   93 1    
    50   24   25 am   BACKBONE|DICT|INTERRES
    51   24   94 1    
    52   25   26 2    
    53   25   27 1    
    54   27   28 1    
    55   27   29 1    
    56   27   95 1    
    57   28   96 1    
    58   28   97 1    
    59   28   98 1    
    60   29   30 am   BACKBONE|DICT|INTERRES
    61   29   99 1    
    62   30   31 2    
    63   30   32 1    
    64   32   33 1    
    65   32   34 1    
    66   32  100 1    
    67   33  101 1    
    68   33  102 1    
    69   33  103 1    
    70   34   35 am   BACKBONE|DICT|INTERRES
    71   34  104 1    
    72   35   36 2    
    73   37   38 2    
    74   37   39 am   BACKBONE|DICT|INTERRES
    75   39   40 1    
    76   39  105 1    
    77   40   41 1    
    78   40   42 1    
    79   40  106 1    
    80   41  107 1    
    81   41  108 1    
    82   41  109 1    
    83   42   43 2    
    84   42   44 am   BACKBONE|DICT|INTERRES
    85   44   45 1    
    86   44  110 1    
    87   45   46 1    
    88   45   47 1    
    89   45  111 1    
    90   46  112 1    
    91   46  113 1    
    92   46  114 1    
    93   47   48 2    
    94   47   49 am   BACKBONE|DICT|INTERRES
    95   49   50 1    
    96   49  115 1    
    97   50   51 1    
    98   50   52 1    
    99   50  116 1    
   100   51  117 1    
   101   51  118 1    
   102   51  119 1    
   103   52   53 2    
   104   52   54 am   BACKBONE|DICT|INTERRES
   105   54   55 1    
   106   54  120 1    
   107   55   56 1    
   108   55   57 1    
   109   55  121 1    
   110   56  122 1    
   111   56  123 1    
   112   56  124 1    
   113   57   58 2    
   114   57   59 am   BACKBONE|DICT|INTERRES
   115   59   60 1    
   116   59  125 1    
   117   60   61 1    
   118   60   62 1    
   119   60  126 1    
   120   61  127 1    
   121   61  128 1    
   122   61  129 1    
   123   62   63 2    
   124   62   64 am   BACKBONE|DICT|INTERRES
   125   64   65 1    
   126   64  130 1    
   127   65   66 1    
   128   65   69 1    
   129   65  131 1    
   130   66   67 am   BACKBONE|DICT|INTERRES
   131   66   68 2    
   132   67  132 1    
   133   67  133 1    
   134   69   70 1    
   135   69  134 1    
   136   69  135 1    
   137   70   71 1    
   138   71  136 1    
   139   71  137 1    
@<TRIPOS>SUBSTRUCTURE
     1 UNK         1 GROUP             0       ****    0 ROOT    
