@<TRIPOS>MOLECULE
3R137
137   139    1
SMALL
USER_CHARGES


@<TRIPOS>ATOM
      1 CA         27.3605   -5.1547    4.1088 C.3       0 UNK        -0.2020 
      2 C          27.7121   -4.0993    3.0709 C.2       0 UNK         0.4855 
      3 O          28.6103   -3.2894    3.3011 O.2       0 UNK        -0.5197 
      4 N          27.0105   -4.1001    1.9337 N.am      1 UNK        -0.4892 
      5 CA         27.1535   -3.1423    0.8378 C.3       1 UNK         0.0835 
      6 C6         28.4340   -3.3764   -0.0124 C.3       12 UNK        -0.0855 
      7 S7         29.1063   -1.8135   -0.6733 S.3       12 UNK        -0.2931 
      8 C8         30.7018   -2.3738   -1.3465 C.3       12 UNK         0.0378 
      9 C9         30.6454   -2.5396   -2.8579 C.ar      12 UNK        -0.0802 
     10 C10        31.2629   -1.5992   -3.6871 C.ar      12 UNK        -0.0944 
     11 C11        31.2403   -1.7534   -5.0752 C.ar      12 UNK        -0.0787 
     12 C12        30.5888   -2.8574   -5.6342 C.ar      12 UNK        -0.0862 
     13 C13        29.9504   -3.7981   -4.8179 C.ar      12 UNK        -0.0733 
     14 C14        29.9926   -3.6362   -3.4292 C.ar      12 UNK        -0.0832 
     15 C15        29.2447   -5.0137   -5.4145 C.3       12 UNK         0.0240 
     16 S16        28.1616   -4.6334   -6.8340 S.3       12 UNK        -0.2522 
     17 C17        26.8862   -3.5621   -6.0867 C.3       12 UNK        -0.0967 
     18 CA         26.5334   -2.3632   -7.0024 C.3       5 UNK         0.0660 
     19 N          25.2179   -1.7941   -6.6949 N.am      5 UNK        -0.4015 
     20 C          24.5672   -0.9217   -7.4804 C.2       4 UNK         0.4946 
     21 O          24.9860   -0.5308   -8.5685 O.2       4 UNK        -0.5353 
     22 CA         23.2440   -0.3534   -6.9438 C.3       4 UNK         0.0277 
     23 CB         22.0956   -1.3544   -7.1487 C.3       4 UNK        -0.1981 
     24 N          23.3291    0.0240   -5.5324 N.am      4 UNK        -0.4209 
     25 C          24.1171    0.9990   -5.0558 C.2       3 UNK         0.4942 
     26 O          24.8140    1.7266   -5.7622 O.2       3 UNK        -0.5208 
     27 CA         24.1696    1.1588   -3.5276 C.3       3 UNK         0.0250 
     28 CB         23.0569    2.1033   -3.0458 C.3       3 UNK        -0.1990 
     29 N          24.0868   -0.1135   -2.8007 N.am      3 UNK        -0.4232 
     30 C          24.9716   -1.1140   -2.9109 C.2       2 UNK         0.4993 
     31 O          25.9467   -1.0950   -3.6659 O.2       2 UNK        -0.5286 
     32 CA         24.7267   -2.3510   -2.0472 C.3       2 UNK         0.0209 
     33 CB         24.5553   -3.6145   -2.9120 C.3       2 UNK        -0.1931 
     34 N          25.8662   -2.4955   -1.1492 N.am      2 UNK        -0.4546 
     35 C          25.8547   -3.1632    0.0081 C.2       1 UNK         0.5154 
     36 O          24.8697   -3.7802    0.4274 O.2       1 UNK        -0.5181 
     37 C          27.6235   -1.2765   -6.9817 C.2       5 UNK         0.5014 
     38 O          28.4282   -1.2112   -7.9138 O.2       5 UNK        -0.5248 
     39 N          27.5886   -0.4163   -5.9511 N.am      6 UNK        -0.4434 
     40 CA         28.4729    0.7381   -5.7951 C.3       6 UNK         0.0363 
     41 CB         28.1717    1.4658   -4.4767 C.3       6 UNK        -0.1936 
     42 C          28.4222    1.6965   -6.9943 C.2       6 UNK         0.5081 
     43 O          29.4743    2.0468   -7.5295 O.2       6 UNK        -0.5248 
     44 N          27.2043    2.0578   -7.4203 N.am      7 UNK        -0.4718 
     45 CA         26.9506    2.8932   -8.5939 C.3       7 UNK         0.0273 
     46 CB         25.4685    3.2995   -8.6224 C.3       7 UNK        -0.1935 
     47 C          27.3527    2.2233   -9.9187 C.2       7 UNK         0.5018 
     48 O          27.9332    2.8947  -10.7724 O.2       7 UNK        -0.5186 
     49 N          27.0305    0.9306  -10.0758 N.am      8 UNK        -0.4240 
     50 CA         27.2996    0.1582  -11.2905 C.3       8 UNK         0.0235 
     51 CB         26.5241   -1.1691  -11.2593 C.3       8 UNK        -0.2000 
     52 C          28.7939   -0.0979  -11.5305 C.2       8 UNK         0.4941 
     53 O          29.2723    0.1503  -12.6385 O.2       8 UNK        -0.5273 
     54 N          29.4981   -0.6080  -10.5104 N.am      9 UNK        -0.4262 
     55 CA         30.9136   -0.9704  -10.6186 C.3       9 UNK         0.0264 
     56 CB         31.2414   -2.0955   -9.6271 C.3       9 UNK        -0.1955 
     57 C          31.8645    0.2272  -10.4548 C.2       9 UNK         0.5031 
     58 O          32.9649    0.1740  -11.0059 O.2       9 UNK        -0.5390 
     59 N          31.4304    1.2783   -9.7369 N.am      10 UNK        -0.4204 
     60 CA         32.1309    2.5534   -9.5230 C.3       10 UNK         0.0237 
     61 CB         32.1585    3.3741  -10.8301 C.3       10 UNK        -0.1985 
     62 C          33.5268    2.3713   -8.8945 C.2       10 UNK         0.4970 
     63 O          34.5297    2.7949   -9.4729 O.2       10 UNK        -0.4914 
     64 N          33.5585    1.7165   -7.7268 N.am      11 UNK        -0.4285 
     65 CA         34.7855    1.3506   -6.9946 C.3       11 UNK         0.1007 
     66 C          35.6129    2.5479   -6.4395 C.2       11 UNK         0.5703 
     67 N          35.0578    3.7497   -6.3332 N.am      11 UNK        -0.7361 
     68 O          36.7821    2.3803   -6.1004 O.2       11 UNK        -0.4986 
     69 C69        34.5098    0.3213   -5.8642 C.3       12 UNK        -0.0947 
     70 S70        33.5921   -1.1561   -6.4212 S.3       12 UNK        -0.2240 
     71 C71        31.8897   -0.7060   -5.9659 C.3       12 UNK         0.0194 
     72 H72        28.2299   -5.7765    4.3208 H         1 UNK         0.0906 
     73 H73        27.0475   -4.6784    5.0375 H         1 UNK         0.0906 
     74 H74        26.5531   -5.8049    3.7722 H         1 UNK         0.0906 
     75 H75        26.2279   -4.7328    1.8091 H         1 UNK         0.3140 
     76 H76        27.2015   -2.1512    1.2952 H         1 UNK         0.1085 
     77 H77        29.2159   -3.8229    0.6038 H         1 UNK         0.0836 
     78 H78        28.2571   -4.0866   -0.8218 H         1 UNK         0.0836 
     79 H79        31.4648   -1.6427   -1.0747 H         1 UNK         0.0731 
     80 H80        31.0097   -3.3120   -0.8828 H         1 UNK         0.0731 
     81 H81        31.7647   -0.7455   -3.2522 H         1 UNK         0.1312 
     82 H82        30.5662   -2.9813   -6.7070 H         1 UNK         0.1406 
     83 H83        29.5199   -4.3673   -2.7887 H         1 UNK         0.1631 
     84 H84        28.6481   -5.5248   -4.6572 H         1 UNK         0.0717 
     85 H85        30.0034   -5.7265   -5.7396 H         1 UNK         0.0717 
     86 H86        26.0046   -4.1851   -5.9293 H         1 UNK         0.0934 
     87 H87        27.1980   -3.2247   -5.0960 H         1 UNK         0.0934 
     88 H88        26.4704   -2.7337   -8.0282 H         1 UNK         0.0739 
     89 H89        24.8320   -2.0112   -5.7888 H         1 UNK         0.3093 
     90 H90        23.0166    0.5483   -7.5170 H         1 UNK         0.0818 
     91 H91        21.1382   -0.9251   -6.8525 H         1 UNK         0.0819 
     92 H92        22.0097   -1.6373   -8.1989 H         1 UNK         0.0819 
     93 H93        22.2446   -2.2705   -6.5759 H         1 UNK         0.0819 
     94 H94        22.7786   -0.5111   -4.8771 H         1 UNK         0.3041 
     95 H95        25.1301    1.6140   -3.2792 H         1 UNK         0.0784 
     96 H96        23.1122    3.0642   -3.5600 H         1 UNK         0.0793 
     97 H97        22.0646    1.6908   -3.2324 H         1 UNK         0.0793 
     98 H98        23.1421    2.3056   -1.9779 H         1 UNK         0.0793 
     99 H99        23.3181   -0.2094   -2.1521 H         1 UNK         0.3024 
    100 H100       23.8195   -2.2024   -1.4566 H         1 UNK         0.1171 
    101 H101       23.7615   -3.4843   -3.6485 H         1 UNK         0.0786 
    102 H102       24.2896   -4.4780   -2.3020 H         1 UNK         0.0786 
    103 H103       25.4705   -3.8604   -3.4501 H         1 UNK         0.0786 
    104 H104       26.7109   -2.0123   -1.4351 H         1 UNK         0.2977 
    105 H105       26.9169   -0.5786   -5.2035 H         1 UNK         0.3127 
    106 H106       29.4850    0.3522   -5.7277 H         1 UNK         0.0770 
    107 H107       27.1745    1.9032   -4.4743 H         1 UNK         0.0814 
    108 H108       28.8823    2.2762   -4.3106 H         1 UNK         0.0814 
    109 H109       28.2450    0.7889   -3.6248 H         1 UNK         0.0814 
    110 H110       26.3897    1.7490   -6.8947 H         1 UNK         0.2983 
    111 H111       27.5503    3.8003   -8.4904 H         1 UNK         0.0947 
    112 H112       25.2521    3.9345   -9.4825 H         1 UNK         0.0806 
    113 H113       25.1945    3.8593   -7.7279 H         1 UNK         0.0806 
    114 H114       24.8136    2.4290   -8.6832 H         1 UNK         0.0806 
    115 H115       26.5067    0.4588   -9.3432 H         1 UNK         0.3000 
    116 H116       26.9281    0.7384  -12.1380 H         1 UNK         0.0850 
    117 H117       26.7245   -1.7621  -12.1526 H         1 UNK         0.0810 
    118 H118       25.4484   -0.9971  -11.2213 H         1 UNK         0.0810 
    119 H119       26.7963   -1.7761  -10.3950 H         1 UNK         0.0810 
    120 H120       29.0372   -0.7897   -9.6188 H         1 UNK         0.3040 
    121 H121       31.0915   -1.3721  -11.6189 H         1 UNK         0.0766 
    122 H122       32.3057   -2.3348   -9.6343 H         1 UNK         0.0812 
    123 H123       30.6998   -3.0085   -9.8747 H         1 UNK         0.0812 
    124 H124       30.9727   -1.8214   -8.6123 H         1 UNK         0.0812 
    125 H125       30.5227    1.2132   -9.2898 H         1 UNK         0.3205 
    126 H126       31.5406    3.1181   -8.8005 H         1 UNK         0.0754 
    127 H127       32.5992    4.3580  -10.6651 H         1 UNK         0.0769 
    128 H128       31.1514    3.5307  -11.2176 H         1 UNK         0.0769 
    129 H129       32.7431    2.8810  -11.6077 H         1 UNK         0.0769 
    130 H130       32.6895    1.4017   -7.3249 H         1 UNK         0.2981 
    131 H131       35.4346    0.8587   -7.7216 H         1 UNK         0.0541 
    132 H132       34.1014    3.8985   -6.6107 H         1 UNK         0.3459 
    133 H133       35.6057    4.5161   -5.9756 H         1 UNK         0.3459 
    134 H134       33.9866    0.7912   -5.0298 H         1 UNK         0.0612 
    135 H135       35.4554   -0.0342   -5.4505 H         1 UNK         0.0612 
    136 H136       31.8688    0.2605   -5.4616 H         1 UNK         0.0624 
    137 H137       31.3034   -0.5660   -6.8723 H         1 UNK         0.0624 
@<TRIPOS>BOND
     1    1    2 1    
     2    1   72 1    
     3    1   73 1    
     4    1   74 1    
     5    2    3 2    
     6    2    4 am   BACKBONE|DICT|INTERRES
     7    4    5 1    
     8    4   75 1    
     9    5    6 1    
    10    5   35 1    
    11    5   76 1    
    12    6    7 1    
    13    6   77 1    
    14    6   78 1    
    15    7    8 1    
    16    8    9 1    
    17    8   79 1    
    18    8   80 1    
    19    9   10 ar   
    20    9   14 ar   
    21   10   11 ar   
    22   10   81 1    
    23   11   12 ar   
    24   11   71 1    
    25   12   13 ar   
    26   12   82 1    
    27   13   14 ar   
    28   13   15 1    
    29   14   83 1    
    30   15   16 1    
    31   15   84 1    
    32   15   85 1    
    33   16   17 1    
    34   17   18 1    
    35   17   86 1    
    36   17   87 1    
    37   18   19 1    
    38   18   37 1    
    39   18   88 1    
    40   19   20 am   BACKBONE|DICT|INTERRES
    41   19   89 1    
    42   20   21 2    
    43   20   22 1    
    44   22   23 1    
    45   22   24 1    
    46   22   90 1    
    47   23   91 1    
    48   23   92 1    
    49   23   93 1    
    50   24   25 am   BACKBONE|DICT|INTERRES
    51   24   94 1    
    52   25   26 2    
    53   25   27 1    
    54   27   28 1    
    55   27   29 1    
    56   27   95 1    
    57   28   96 1    
    58   28   97 1    
    59   28   98 1    
    60   29   30 am   BACKBONE|DICT|INTERRES
    61   29   99 1    
    62   30   31 2    
    63   30   32 1    
    64   32   33 1    
    65   32   34 1    
    66   32  100 1    
    67   33  101 1    
    68   33  102 1    
    69   33  103 1    
    70   34   35 am   BACKBONE|DICT|INTERRES
    71   34  104 1    
    72   35   36 2    
    73   37   38 2    
    74   37   39 am   BACKBONE|DICT|INTERRES
    75   39   40 1    
    76   39  105 1    
    77   40   41 1    
    78   40   42 1    
    79   40  106 1    
    80   41  107 1    
    81   41  108 1    
    82   41  109 1    
    83   42   43 2    
    84   42   44 am   BACKBONE|DICT|INTERRES
    85   44   45 1    
    86   44  110 1    
    87   45   46 1    
    88   45   47 1    
    89   45  111 1    
    90   46  112 1    
    91   46  113 1    
    92   46  114 1    
    93   47   48 2    
    94   47   49 am   BACKBONE|DICT|INTERRES
    95   49   50 1    
    96   49  115 1    
    97   50   51 1    
    98   50   52 1    
    99   50  116 1    
   100   51  117 1    
   101   51  118 1    
   102   51  119 1    
   103   52   53 2    
   104   52   54 am   BACKBONE|DICT|INTERRES
   105   54   55 1    
   106   54  120 1    
   107   55   56 1    
   108   55   57 1    
   109   55  121 1    
   110   56  122 1    
   111   56  123 1    
   112   56  124 1    
   113   57   58 2    
   114   57   59 am   BACKBONE|DICT|INTERRES
   115   59   60 1    
   116   59  125 1    
   117   60   61 1    
   118   60   62 1    
   119   60  126 1    
   120   61  127 1    
   121   61  128 1    
   122   61  129 1    
   123   62   63 2    
   124   62   64 am   BACKBONE|DICT|INTERRES
   125   64   65 1    
   126   64  130 1    
   127   65   66 1    
   128   65   69 1    
   129   65  131 1    
   130   66   67 am   BACKBONE|DICT|INTERRES
   131   66   68 2    
   132   67  132 1    
   133   67  133 1    
   134   69   70 1    
   135   69  134 1    
   136   69  135 1    
   137   70   71 1    
   138   71  136 1    
   139   71  137 1    
@<TRIPOS>SUBSTRUCTURE
     1 UNK         1 GROUP             0       ****    0 ROOT    
