@<TRIPOS>MOLECULE
3R137
137   139    1
SMALL
USER_CHARGES


@<TRIPOS>ATOM
      1 CA         27.8850   -4.8924   -4.7643 C.3       0 UNK        -0.2020 
      2 C          29.0998   -4.3340   -4.0273 C.2       0 UNK         0.4855 
      3 O          30.1091   -4.0580   -4.6672 O.2       0 UNK        -0.5197 
      4 N          29.0690   -4.1702   -2.6976 N.am      1 UNK        -0.4892 
      5 CA         27.9638   -4.4974   -1.7865 C.3       1 UNK         0.0835 
      6 C6         28.3910   -4.4941   -0.2938 C.3       12 UNK        -0.0855 
      7 S7         29.9489   -5.3824    0.0462 S.3       12 UNK        -0.2931 
      8 C8         31.0147   -4.0272    0.6424 C.3       12 UNK         0.0378 
      9 C9         31.5585   -3.1754   -0.4977 C.ar      12 UNK        -0.0802 
     10 C10        32.7486   -3.5461   -1.1292 C.ar      12 UNK        -0.0944 
     11 C11        33.2897   -2.7603   -2.1505 C.ar      12 UNK        -0.0787 
     12 C12        32.6159   -1.6050   -2.5584 C.ar      12 UNK        -0.0862 
     13 C13        31.4160   -1.2288   -1.9456 C.ar      12 UNK        -0.0733 
     14 C14        30.9002   -2.0086   -0.9039 C.ar      12 UNK        -0.0832 
     15 C15        30.6758    0.0143   -2.4187 C.3       12 UNK         0.0240 
     16 S16        29.5610   -0.4064   -3.7886 S.3       12 UNK        -0.2522 
     17 C17        28.7258    1.1836   -4.1321 C.3       12 UNK        -0.0967 
     18 CA         28.2734    1.3112   -5.6127 C.3       5 UNK         0.0660 
     19 N          27.6381    0.0935   -6.1163 N.am      5 UNK        -0.4015 
     20 C          27.3473   -0.1674   -7.3962 C.2       4 UNK         0.4946 
     21 O          27.5598    0.6163   -8.3225 O.2       4 UNK        -0.5353 
     22 CA         26.6772   -1.5236   -7.6802 C.3       4 UNK         0.0277 
     23 CB         27.7340   -2.6148   -7.9137 C.3       4 UNK        -0.1981 
     24 N          25.7807   -1.9471   -6.6007 N.am      4 UNK        -0.4209 
     25 C          24.6352   -1.3312   -6.2789 C.2       3 UNK         0.4942 
     26 O          24.1801   -0.3621   -6.8864 O.2       3 UNK        -0.5208 
     27 CA         23.9111   -1.8589   -5.0290 C.3       3 UNK         0.0250 
     28 CB         23.2986   -3.2461   -5.2841 C.3       3 UNK        -0.1990 
     29 N          24.7697   -1.9075   -3.8390 N.am      3 UNK        -0.4232 
     30 C          25.3917   -0.8526   -3.2964 C.2       2 UNK         0.4993 
     31 O          25.3693    0.2761   -3.7825 O.2       2 UNK        -0.5286 
     32 CA         26.1888   -1.0717   -2.0038 C.3       2 UNK         0.0209 
     33 CB         25.2626   -1.0692   -0.7718 C.3       2 UNK        -0.1931 
     34 N          27.0828   -2.2364   -2.0152 N.am      2 UNK        -0.4546 
     35 C          26.7722   -3.5391   -1.9658 C.2       1 UNK         0.5154 
     36 O          25.6283   -3.9848   -2.0583 O.2       1 UNK        -0.5181 
     37 C          27.3584    2.5322   -5.8314 C.2       5 UNK         0.5014 
     38 O          27.7970    3.5256   -6.4120 O.2       5 UNK        -0.5248 
     39 N          26.0864    2.4073   -5.4227 N.am      6 UNK        -0.4434 
     40 CA         25.0249    3.3978   -5.6244 C.3       6 UNK         0.0363 
     41 CB         23.7806    2.9767   -4.8269 C.3       6 UNK        -0.1936 
     42 C          24.6645    3.6121   -7.1046 C.2       6 UNK         0.5081 
     43 O          24.3161    4.7300   -7.4842 O.2       6 UNK        -0.5248 
     44 N          24.7873    2.5560   -7.9209 N.am      7 UNK        -0.4718 
     45 CA         24.6239    2.5982   -9.3782 C.3       7 UNK         0.0273 
     46 CB         24.3565    1.1739   -9.8932 C.3       7 UNK        -0.1935 
     47 C          25.8201    3.2296  -10.1213 C.2       7 UNK         0.5018 
     48 O          25.7498    3.3669  -11.3433 O.2       7 UNK        -0.5186 
     49 N          26.8882    3.5876   -9.3906 N.am      8 UNK        -0.4240 
     50 CA         28.1475    4.1746   -9.8629 C.3       8 UNK         0.0235 
     51 CB         27.9150    5.5360  -10.5538 C.3       8 UNK        -0.2000 
     52 C          29.0063    3.2106  -10.7049 C.2       8 UNK         0.4941 
     53 O          29.8605    3.6673  -11.4667 O.2       8 UNK        -0.5273 
     54 N          28.8073    1.8977  -10.5231 N.am      9 UNK        -0.4262 
     55 CA         29.6500    0.8386  -11.0849 C.3       9 UNK         0.0264 
     56 CB         28.7744   -0.3891  -11.3882 C.3       9 UNK        -0.1955 
     57 C          30.8187    0.4715  -10.1480 C.2       9 UNK         0.5031 
     58 O          31.6966   -0.2869  -10.5629 O.2       9 UNK        -0.5390 
     59 N          30.8145    1.0209   -8.9225 N.am      10 UNK        -0.4204 
     60 CA         31.7692    0.8034   -7.8305 C.3       10 UNK         0.0237 
     61 CB         33.1945    1.2520   -8.2308 C.3       10 UNK        -0.1985 
     62 C          31.6838   -0.6329   -7.2791 C.2       10 UNK         0.4970 
     63 O          30.6005   -1.2161   -7.2899 O.2       10 UNK        -0.4914 
     64 N          32.8050   -1.1543   -6.7678 N.am      11 UNK        -0.4285 
     65 CA         32.9306   -2.5030   -6.2022 C.3       11 UNK         0.1007 
     66 C          32.6277   -3.6111   -7.2504 C.2       11 UNK         0.5703 
     67 N          31.6729   -4.4879   -6.9778 N.am      11 UNK        -0.7361 
     68 O          33.2775   -3.6935   -8.2915 O.2       11 UNK        -0.4986 
     69 C69        34.3321   -2.6806   -5.5623 C.3       12 UNK        -0.0947 
     70 S70        34.3984   -4.0445   -4.3519 S.3       12 UNK        -0.2240 
     71 C71        34.6184   -3.1510   -2.7817 C.3       12 UNK         0.0194 
     72 H72        27.5413   -5.8242   -4.3172 H         1 UNK         0.0906 
     73 H73        27.0657   -4.1764   -4.7638 H         1 UNK         0.0906 
     74 H74        28.1387   -5.1057   -5.8027 H         1 UNK         0.0906 
     75 H75        29.9116   -3.8382   -2.2463 H         1 UNK         0.3140 
     76 H76        27.6199   -5.5063   -2.0223 H         1 UNK         0.1085 
     77 H77        27.6105   -4.9613    0.3104 H         1 UNK         0.0836 
     78 H78        28.4770   -3.4765    0.0902 H         1 UNK         0.0836 
     79 H79        31.8466   -4.4627    1.1983 H         1 UNK         0.0731 
     80 H80        30.4720   -3.4102    1.3603 H         1 UNK         0.0731 
     81 H81        33.2640   -4.4428   -0.8125 H         1 UNK         0.1312 
     82 H82        33.0220   -0.9992   -3.3564 H         1 UNK         0.1406 
     83 H83        29.9861   -1.7063   -0.4122 H         1 UNK         0.1631 
     84 H84        31.3855    0.7756   -2.7460 H         1 UNK         0.0717 
     85 H85        30.1015    0.4515   -1.6005 H         1 UNK         0.0717 
     86 H86        27.8789    1.2737   -3.4510 H         1 UNK         0.0934 
     87 H87        29.4008    2.0042   -3.8817 H         1 UNK         0.0934 
     88 H88        29.1685    1.4659   -6.2168 H         1 UNK         0.0739 
     89 H89        27.4400   -0.6124   -5.4252 H         1 UNK         0.3093 
     90 H90        26.0863   -1.4178   -8.5919 H         1 UNK         0.0818 
     91 H91        28.4173   -2.3348   -8.7159 H         1 UNK         0.0819 
     92 H92        28.3435   -2.7851   -7.0250 H         1 UNK         0.0819 
     93 H93        27.2754   -3.5624   -8.1961 H         1 UNK         0.0819 
     94 H94        26.0670   -2.7425   -6.0520 H         1 UNK         0.3041 
     95 H95        23.0959   -1.1651   -4.8120 H         1 UNK         0.0784 
     96 H96        22.6605   -3.2349   -6.1691 H         1 UNK         0.0793 
     97 H97        24.0623   -4.0087   -5.4407 H         1 UNK         0.0793 
     98 H98        22.6790   -3.5636   -4.4451 H         1 UNK         0.0793 
     99 H99        24.8473   -2.7936   -3.3466 H         1 UNK         0.3024 
    100 H100       26.8458   -0.2069   -1.9011 H         1 UNK         0.1171 
    101 H101       25.8339   -1.1426    0.1536 H         1 UNK         0.0786 
    102 H102       24.6860   -0.1444   -0.7229 H         1 UNK         0.0786 
    103 H103       24.5479   -1.8924   -0.7911 H         1 UNK         0.0786 
    104 H104       28.0678   -2.0106   -2.0433 H         1 UNK         0.2977 
    105 H105       25.8140    1.5573   -4.9265 H         1 UNK         0.3127 
    106 H106       25.3807    4.3518   -5.2298 H         1 UNK         0.0770 
    107 H107       23.3992    2.0101   -5.1601 H         1 UNK         0.0814 
    108 H108       22.9763    3.7046   -4.9411 H         1 UNK         0.0814 
    109 H109       24.0001    2.8987   -3.7620 H         1 UNK         0.0814 
    110 H110       25.0249    1.6572   -7.5175 H         1 UNK         0.2983 
    111 H111       23.7488    3.2103   -9.6068 H         1 UNK         0.0947 
    112 H112       24.1450    1.1767  -10.9633 H         1 UNK         0.0806 
    113 H113       23.4966    0.7252   -9.3957 H         1 UNK         0.0806 
    114 H114       25.2148    0.5218   -9.7346 H         1 UNK         0.0806 
    115 H115       26.8515    3.4077   -8.3937 H         1 UNK         0.3000 
    116 H116       28.7304    4.3693   -8.9615 H         1 UNK         0.0850 
    117 H117       28.8607    6.0465  -10.7394 H         1 UNK         0.0810 
    118 H118       27.3085    6.1968   -9.9343 H         1 UNK         0.0810 
    119 H119       27.4154    5.4239  -11.5163 H         1 UNK         0.0810 
    120 H120       28.1132    1.5933   -9.8422 H         1 UNK         0.3040 
    121 H121       30.0859    1.1793  -12.0264 H         1 UNK         0.0766 
    122 H122       27.9864   -0.1453  -12.1007 H         1 UNK         0.0812 
    123 H123       28.3008   -0.7801  -10.4889 H         1 UNK         0.0812 
    124 H124       29.3667   -1.1954  -11.8226 H         1 UNK         0.0812 
    125 H125       29.9967    1.5611   -8.6806 H         1 UNK         0.3205 
    126 H126       31.4439    1.4528   -7.0170 H         1 UNK         0.0754 
    127 H127       33.6521    0.5703   -8.9489 H         1 UNK         0.0769 
    128 H128       33.8528    1.3115   -7.3634 H         1 UNK         0.0769 
    129 H129       33.1805    2.2443   -8.6820 H         1 UNK         0.0769 
    130 H130       33.6560   -0.6173   -6.8289 H         1 UNK         0.2981 
    131 H131       32.1866   -2.5635   -5.4055 H         1 UNK         0.0541 
    132 H132       31.1223   -4.3865   -6.1257 H         1 UNK         0.3459 
    133 H133       31.4647   -5.2217   -7.6344 H         1 UNK         0.3459 
    134 H134       35.0923   -2.8557   -6.3259 H         1 UNK         0.0612 
    135 H135       34.6334   -1.7595   -5.0623 H         1 UNK         0.0612 
    136 H136       35.2442   -2.2693   -2.9254 H         1 UNK         0.0624 
    137 H137       35.1743   -3.7972   -2.1006 H         1 UNK         0.0624 
@<TRIPOS>BOND
     1    1    2 1    
     2    1   72 1    
     3    1   73 1    
     4    1   74 1    
     5    2    3 2    
     6    2    4 am   BACKBONE|DICT|INTERRES
     7    4    5 1    
     8    4   75 1    
     9    5    6 1    
    10    5   35 1    
    11    5   76 1    
    12    6    7 1    
    13    6   77 1    
    14    6   78 1    
    15    7    8 1    
    16    8    9 1    
    17    8   79 1    
    18    8   80 1    
    19    9   10 ar   
    20    9   14 ar   
    21   10   11 ar   
    22   10   81 1    
    23   11   12 ar   
    24   11   71 1    
    25   12   13 ar   
    26   12   82 1    
    27   13   14 ar   
    28   13   15 1    
    29   14   83 1    
    30   15   16 1    
    31   15   84 1    
    32   15   85 1    
    33   16   17 1    
    34   17   18 1    
    35   17   86 1    
    36   17   87 1    
    37   18   19 1    
    38   18   37 1    
    39   18   88 1    
    40   19   20 am   BACKBONE|DICT|INTERRES
    41   19   89 1    
    42   20   21 2    
    43   20   22 1    
    44   22   23 1    
    45   22   24 1    
    46   22   90 1    
    47   23   91 1    
    48   23   92 1    
    49   23   93 1    
    50   24   25 am   BACKBONE|DICT|INTERRES
    51   24   94 1    
    52   25   26 2    
    53   25   27 1    
    54   27   28 1    
    55   27   29 1    
    56   27   95 1    
    57   28   96 1    
    58   28   97 1    
    59   28   98 1    
    60   29   30 am   BACKBONE|DICT|INTERRES
    61   29   99 1    
    62   30   31 2    
    63   30   32 1    
    64   32   33 1    
    65   32   34 1    
    66   32  100 1    
    67   33  101 1    
    68   33  102 1    
    69   33  103 1    
    70   34   35 am   BACKBONE|DICT|INTERRES
    71   34  104 1    
    72   35   36 2    
    73   37   38 2    
    74   37   39 am   BACKBONE|DICT|INTERRES
    75   39   40 1    
    76   39  105 1    
    77   40   41 1    
    78   40   42 1    
    79   40  106 1    
    80   41  107 1    
    81   41  108 1    
    82   41  109 1    
    83   42   43 2    
    84   42   44 am   BACKBONE|DICT|INTERRES
    85   44   45 1    
    86   44  110 1    
    87   45   46 1    
    88   45   47 1    
    89   45  111 1    
    90   46  112 1    
    91   46  113 1    
    92   46  114 1    
    93   47   48 2    
    94   47   49 am   BACKBONE|DICT|INTERRES
    95   49   50 1    
    96   49  115 1    
    97   50   51 1    
    98   50   52 1    
    99   50  116 1    
   100   51  117 1    
   101   51  118 1    
   102   51  119 1    
   103   52   53 2    
   104   52   54 am   BACKBONE|DICT|INTERRES
   105   54   55 1    
   106   54  120 1    
   107   55   56 1    
   108   55   57 1    
   109   55  121 1    
   110   56  122 1    
   111   56  123 1    
   112   56  124 1    
   113   57   58 2    
   114   57   59 am   BACKBONE|DICT|INTERRES
   115   59   60 1    
   116   59  125 1    
   117   60   61 1    
   118   60   62 1    
   119   60  126 1    
   120   61  127 1    
   121   61  128 1    
   122   61  129 1    
   123   62   63 2    
   124   62   64 am   BACKBONE|DICT|INTERRES
   125   64   65 1    
   126   64  130 1    
   127   65   66 1    
   128   65   69 1    
   129   65  131 1    
   130   66   67 am   BACKBONE|DICT|INTERRES
   131   66   68 2    
   132   67  132 1    
   133   67  133 1    
   134   69   70 1    
   135   69  134 1    
   136   69  135 1    
   137   70   71 1    
   138   71  136 1    
   139   71  137 1    
@<TRIPOS>SUBSTRUCTURE
     1 UNK         1 GROUP             0       ****    0 ROOT    
