@<TRIPOS>MOLECULE
3R137
137   139    1
SMALL
USER_CHARGES


@<TRIPOS>ATOM
      1 CA         24.6637   -6.4081    2.1518 C.3       0 UNK        -0.2020 
      2 C          25.6029   -5.2181    2.0254 C.2       0 UNK         0.4855 
      3 O          25.8452   -4.5223    3.0117 O.2       0 UNK        -0.5197 
      4 N          26.1329   -4.9765    0.8182 N.am      1 UNK        -0.4892 
      5 CA         27.0468   -3.8658    0.5132 C.3       1 UNK         0.0835 
      6 C6         27.8526   -4.1502   -0.7813 C.3       12 UNK        -0.0855 
      7 S7         29.4664   -3.2965   -0.7986 S.3       12 UNK        -0.2931 
      8 C8         29.1981   -2.0289   -2.0768 C.3       12 UNK         0.0378 
      9 C9         29.7580   -2.4631   -3.4232 C.ar      12 UNK        -0.0802 
     10 C10        30.9574   -1.9195   -3.8894 C.ar      12 UNK        -0.0944 
     11 C11        31.4570   -2.2665   -5.1481 C.ar      12 UNK        -0.0787 
     12 C12        30.7588   -3.1925   -5.9321 C.ar      12 UNK        -0.0862 
     13 C13        29.5711   -3.7687   -5.4658 C.ar      12 UNK        -0.0733 
     14 C14        29.0730   -3.3890   -4.2139 C.ar      12 UNK        -0.0832 
     15 C15        28.8714   -4.8518   -6.2823 C.3       12 UNK         0.0240 
     16 S16        27.0606   -4.6386   -6.3836 S.3       12 UNK        -0.2522 
     17 C17        26.8276   -3.8792   -8.0291 C.3       12 UNK        -0.0967 
     18 CA         26.5035   -2.3656   -7.9985 C.3       5 UNK         0.0660 
     19 N          25.4261   -2.0397   -7.0610 N.am      5 UNK        -0.4015 
     20 C          24.8169   -0.8531   -6.9374 C.2       4 UNK         0.4946 
     21 O          25.0693    0.1252   -7.6435 O.2       4 UNK        -0.5353 
     22 CA         23.7958   -0.7130   -5.7951 C.3       4 UNK         0.0277 
     23 CB         23.1784   -2.0562   -5.3422 C.3       4 UNK        -0.1981 
     24 N          24.3585   -0.0004   -4.6420 N.am      4 UNK        -0.4209 
     25 C          25.4617   -0.3134   -3.9439 C.2       3 UNK         0.4942 
     26 O          26.2194   -1.2428   -4.2259 O.2       3 UNK        -0.5208 
     27 CA         25.7867    0.5527   -2.7130 C.3       3 UNK         0.0250 
     28 CB         25.1884    1.9766   -2.7681 C.3       3 UNK        -0.1990 
     29 N          25.4200   -0.1283   -1.4662 N.am      3 UNK        -0.4232 
     30 C          24.2070   -0.5628   -1.0929 C.2       2 UNK         0.4993 
     31 O          23.1819   -0.3999   -1.7573 O.2       2 UNK        -0.5286 
     32 CA         24.1362   -1.3161    0.2509 C.3       2 UNK         0.0209 
     33 CB         22.7027   -1.7477    0.6159 C.3       2 UNK        -0.1931 
     34 N          24.9998   -2.5008    0.2715 N.am      2 UNK        -0.4546 
     35 C          26.3270   -2.4961    0.4620 C.2       1 UNK         0.5154 
     36 O          26.9751   -1.4566    0.5980 O.2       1 UNK        -0.5181 
     37 C          27.7733   -1.5066   -7.8304 C.2       5 UNK         0.5014 
     38 O          28.5535   -1.4331   -8.7794 O.2       5 UNK        -0.5248 
     39 N          27.9369   -0.8173   -6.6900 N.am      6 UNK        -0.4434 
     40 CA         28.9739    0.1965   -6.4770 C.3       6 UNK         0.0363 
     41 CB         28.8459    0.7873   -5.0649 C.3       6 UNK        -0.1936 
     42 C          28.9449    1.3314   -7.5154 C.2       6 UNK         0.5081 
     43 O          30.0056    1.7883   -7.9423 O.2       6 UNK        -0.5248 
     44 N          27.7365    1.7413   -7.9301 N.am      7 UNK        -0.4718 
     45 CA         27.5246    2.7645   -8.9560 C.3       7 UNK         0.0273 
     46 CB         26.0762    3.2718   -8.8790 C.3       7 UNK        -0.1935 
     47 C          27.8479    2.2609  -10.3725 C.2       7 UNK         0.5018 
     48 O          28.2962    3.0518  -11.2022 O.2       7 UNK        -0.5186 
     49 N          27.6300    0.9612  -10.6196 N.am      8 UNK        -0.4240 
     50 CA         27.9725    0.2887  -11.8747 C.3       8 UNK         0.0235 
     51 CB         27.1809   -1.0240  -11.9978 C.3       8 UNK        -0.2000 
     52 C          29.4840    0.0344  -11.9846 C.2       8 UNK         0.4941 
     53 O          30.0601    0.2590  -13.0495 O.2       8 UNK        -0.5273 
     54 N          30.0983   -0.4075  -10.8778 N.am      9 UNK        -0.4262 
     55 CA         31.5413   -0.6119  -10.7402 C.3       9 UNK         0.0264 
     56 CB         31.8181   -1.3849   -9.4394 C.3       9 UNK        -0.1955 
     57 C          32.3430    0.7009  -10.7582 C.2       9 UNK         0.5031 
     58 O          33.4884    0.6938  -11.2110 O.2       9 UNK        -0.5390 
     59 N          31.7347    1.7850  -10.2505 N.am      10 UNK        -0.4204 
     60 CA         32.3068    3.1220  -10.0488 C.3       10 UNK         0.0237 
     61 CB         32.6583    3.7905  -11.3949 C.3       10 UNK        -0.1985 
     62 C          33.4780    3.1081   -9.0465 C.2       10 UNK         0.4970 
     63 O          34.4496    3.8469   -9.2159 O.2       10 UNK        -0.4914 
     64 N          33.3610    2.2523   -8.0240 N.am      11 UNK        -0.4285 
     65 CA         34.3635    2.0379   -6.9710 C.3       11 UNK         0.1007 
     66 C          34.3743    3.1172   -5.8486 C.2       11 UNK         0.5703 
     67 N          33.4156    4.0350   -5.7968 N.am      11 UNK        -0.7361 
     68 O          35.2819    3.1322   -5.0203 O.2       11 UNK        -0.4986 
     69 C69        34.2829    0.5929   -6.4091 C.3       12 UNK        -0.0947 
     70 S70        32.6356    0.1656   -5.7556 S.3       12 UNK        -0.2240 
     71 C71        32.7566   -1.6471   -5.6469 C.3       12 UNK         0.0194 
     72 H72        24.5429   -6.9365    1.2064 H         1 UNK         0.0906 
     73 H73        25.0498   -7.1138    2.8868 H         1 UNK         0.0906 
     74 H74        23.6801   -6.0761    2.4827 H         1 UNK         0.0906 
     75 H75        25.9044   -5.5873    0.0457 H         1 UNK         0.3140 
     76 H76        27.7549   -3.8059    1.3436 H         1 UNK         0.1085 
     77 H77        27.2688   -3.9156   -1.6731 H         1 UNK         0.0836 
     78 H78        28.0776   -5.2158   -0.8530 H         1 UNK         0.0836 
     79 H79        28.1373   -1.7931   -2.1724 H         1 UNK         0.0731 
     80 H80        29.6776   -1.1048   -1.7501 H         1 UNK         0.0731 
     81 H81        31.4961   -1.2049   -3.2822 H         1 UNK         0.1312 
     82 H82        31.1501   -3.4780   -6.8989 H         1 UNK         0.1406 
     83 H83        28.1519   -3.8214   -3.8502 H         1 UNK         0.1631 
     84 H84        29.0713   -5.8110   -5.8033 H         1 UNK         0.0717 
     85 H85        29.2973   -4.9234   -7.2838 H         1 UNK         0.0717 
     86 H86        27.6845   -4.0862   -8.6732 H         1 UNK         0.0934 
     87 H87        25.9944   -4.4037   -8.4994 H         1 UNK         0.0934 
     88 H88        26.1200   -2.1079   -8.9880 H         1 UNK         0.0739 
     89 H89        25.2085   -2.7592   -6.3862 H         1 UNK         0.3093 
     90 H90        22.9868   -0.0926   -6.1839 H         1 UNK         0.0818 
     91 H91        22.3692   -1.8882   -4.6312 H         1 UNK         0.0819 
     92 H92        22.7536   -2.6014   -6.1863 H         1 UNK         0.0819 
     93 H93        23.9047   -2.7075   -4.8544 H         1 UNK         0.0819 
     94 H94        23.8166    0.7866   -4.3142 H         1 UNK         0.3041 
     95 H95        26.8724    0.6575   -2.6933 H         1 UNK         0.0784 
     96 H96        25.4684    2.4851   -3.6919 H         1 UNK         0.0793 
     97 H97        24.0999    1.9780   -2.7045 H         1 UNK         0.0793 
     98 H98        25.5622    2.5853   -1.9447 H         1 UNK         0.0793 
     99 H99        26.1904   -0.3636   -0.8467 H         1 UNK         0.3024 
    100 H100       24.4767   -0.6202    1.0216 H         1 UNK         0.1171 
    101 H101       22.0332   -0.8873    0.6557 H         1 UNK         0.0786 
    102 H102       22.6694   -2.2258    1.5952 H         1 UNK         0.0786 
    103 H103       22.2925   -2.4470   -0.1139 H         1 UNK         0.0786 
    104 H104       24.5458   -3.3938    0.1467 H         1 UNK         0.2977 
    105 H105       27.2861   -0.9791   -5.9270 H         1 UNK         0.3127 
    106 H106       29.9334   -0.3112   -6.5643 H         1 UNK         0.0770 
    107 H107       27.9323    1.3719   -4.9532 H         1 UNK         0.0814 
    108 H108       29.6861    1.4474   -4.8456 H         1 UNK         0.0814 
    109 H109       28.8393    0.0092   -4.3045 H         1 UNK         0.0814 
    110 H110       26.9089    1.2793   -7.5683 H         1 UNK         0.2983 
    111 H111       28.1917    3.6038   -8.7454 H         1 UNK         0.0947 
    112 H112       25.9007    4.0626   -9.6098 H         1 UNK         0.0806 
    113 H113       25.8519    3.6846   -7.8953 H         1 UNK         0.0806 
    114 H114       25.3575    2.4764   -9.0805 H         1 UNK         0.0806 
    115 H115       27.2913    0.3825   -9.8646 H         1 UNK         0.3000 
    116 H116       27.6809    0.9376  -12.7037 H         1 UNK         0.0850 
    117 H117       27.3836   -1.5091  -12.9535 H         1 UNK         0.0810 
    118 H118       26.1065   -0.8461  -11.9472 H         1 UNK         0.0810 
    119 H119       27.4413   -1.7350  -11.2135 H         1 UNK         0.0810 
    120 H120       29.5276   -0.6483  -10.0675 H         1 UNK         0.3040 
    121 H121       31.8789   -1.2198  -11.5822 H         1 UNK         0.0766 
    122 H122       32.8862   -1.5633   -9.3078 H         1 UNK         0.0812 
    123 H123       31.3235   -2.3564   -9.4427 H         1 UNK         0.0812 
    124 H124       31.4675   -0.8377   -8.5634 H         1 UNK         0.0812 
    125 H125       30.8267    1.6480   -9.8183 H         1 UNK         0.3205 
    126 H126       31.5195    3.7170   -9.5834 H         1 UNK         0.0754 
    127 H127       32.9474    4.8321  -11.2499 H         1 UNK         0.0769 
    128 H128       31.8052    3.7828  -12.0736 H         1 UNK         0.0769 
    129 H129       33.4887    3.2898  -11.8935 H         1 UNK         0.0769 
    130 H130       32.5056    1.7217   -7.9288 H         1 UNK         0.2981 
    131 H131       35.3431    2.1237   -7.4451 H         1 UNK         0.0541 
    132 H132       32.6646    4.0253   -6.4674 H         1 UNK         0.3459 
    133 H133       33.4380    4.7325   -5.0700 H         1 UNK         0.3459 
    134 H134       35.0274    0.4325   -5.6272 H         1 UNK         0.0612 
    135 H135       34.5279   -0.1133   -7.2039 H         1 UNK         0.0612 
    136 H136       33.0235   -2.0460   -6.6265 H         1 UNK         0.0624 
    137 H137       33.5664   -1.9138   -4.9666 H         1 UNK         0.0624 
@<TRIPOS>BOND
     1    1    2 1    
     2    1   72 1    
     3    1   73 1    
     4    1   74 1    
     5    2    3 2    
     6    2    4 am   BACKBONE|DICT|INTERRES
     7    4    5 1    
     8    4   75 1    
     9    5    6 1    
    10    5   35 1    
    11    5   76 1    
    12    6    7 1    
    13    6   77 1    
    14    6   78 1    
    15    7    8 1    
    16    8    9 1    
    17    8   79 1    
    18    8   80 1    
    19    9   10 ar   
    20    9   14 ar   
    21   10   11 ar   
    22   10   81 1    
    23   11   12 ar   
    24   11   71 1    
    25   12   13 ar   
    26   12   82 1    
    27   13   14 ar   
    28   13   15 1    
    29   14   83 1    
    30   15   16 1    
    31   15   84 1    
    32   15   85 1    
    33   16   17 1    
    34   17   18 1    
    35   17   86 1    
    36   17   87 1    
    37   18   19 1    
    38   18   37 1    
    39   18   88 1    
    40   19   20 am   BACKBONE|DICT|INTERRES
    41   19   89 1    
    42   20   21 2    
    43   20   22 1    
    44   22   23 1    
    45   22   24 1    
    46   22   90 1    
    47   23   91 1    
    48   23   92 1    
    49   23   93 1    
    50   24   25 am   BACKBONE|DICT|INTERRES
    51   24   94 1    
    52   25   26 2    
    53   25   27 1    
    54   27   28 1    
    55   27   29 1    
    56   27   95 1    
    57   28   96 1    
    58   28   97 1    
    59   28   98 1    
    60   29   30 am   BACKBONE|DICT|INTERRES
    61   29   99 1    
    62   30   31 2    
    63   30   32 1    
    64   32   33 1    
    65   32   34 1    
    66   32  100 1    
    67   33  101 1    
    68   33  102 1    
    69   33  103 1    
    70   34   35 am   BACKBONE|DICT|INTERRES
    71   34  104 1    
    72   35   36 2    
    73   37   38 2    
    74   37   39 am   BACKBONE|DICT|INTERRES
    75   39   40 1    
    76   39  105 1    
    77   40   41 1    
    78   40   42 1    
    79   40  106 1    
    80   41  107 1    
    81   41  108 1    
    82   41  109 1    
    83   42   43 2    
    84   42   44 am   BACKBONE|DICT|INTERRES
    85   44   45 1    
    86   44  110 1    
    87   45   46 1    
    88   45   47 1    
    89   45  111 1    
    90   46  112 1    
    91   46  113 1    
    92   46  114 1    
    93   47   48 2    
    94   47   49 am   BACKBONE|DICT|INTERRES
    95   49   50 1    
    96   49  115 1    
    97   50   51 1    
    98   50   52 1    
    99   50  116 1    
   100   51  117 1    
   101   51  118 1    
   102   51  119 1    
   103   52   53 2    
   104   52   54 am   BACKBONE|DICT|INTERRES
   105   54   55 1    
   106   54  120 1    
   107   55   56 1    
   108   55   57 1    
   109   55  121 1    
   110   56  122 1    
   111   56  123 1    
   112   56  124 1    
   113   57   58 2    
   114   57   59 am   BACKBONE|DICT|INTERRES
   115   59   60 1    
   116   59  125 1    
   117   60   61 1    
   118   60   62 1    
   119   60  126 1    
   120   61  127 1    
   121   61  128 1    
   122   61  129 1    
   123   62   63 2    
   124   62   64 am   BACKBONE|DICT|INTERRES
   125   64   65 1    
   126   64  130 1    
   127   65   66 1    
   128   65   69 1    
   129   65  131 1    
   130   66   67 am   BACKBONE|DICT|INTERRES
   131   66   68 2    
   132   67  132 1    
   133   67  133 1    
   134   69   70 1    
   135   69  134 1    
   136   69  135 1    
   137   70   71 1    
   138   71  136 1    
   139   71  137 1    
@<TRIPOS>SUBSTRUCTURE
     1 UNK         1 GROUP             0       ****    0 ROOT    
