@<TRIPOS>MOLECULE
3R137
137   139    1
SMALL
USER_CHARGES


@<TRIPOS>ATOM
      1 CA         30.1725   -5.5671   -5.6772 C.3       0 UNK        -0.2020 
      2 C          29.1808   -5.7293   -4.5344 C.2       0 UNK         0.4855 
      3 O          28.7233   -6.8408   -4.2689 O.2       0 UNK        -0.5197 
      4 N          28.8421   -4.6278   -3.8606 N.am      1 UNK        -0.4892 
      5 CA         27.8706   -4.5424   -2.7722 C.3       1 UNK         0.0835 
      6 C6         28.4074   -5.1845   -1.4434 C.3       12 UNK        -0.0855 
      7 S7         28.4554   -4.2036    0.1022 S.3       12 UNK        -0.2931 
      8 C8         30.2031   -3.7015    0.1703 C.3       12 UNK         0.0378 
      9 C9         30.5577   -2.7514   -0.9629 C.ar      12 UNK        -0.0802 
     10 C10        31.3206   -3.1975   -2.0464 C.ar      12 UNK        -0.0944 
     11 C11        31.6413   -2.3259   -3.0902 C.ar      12 UNK        -0.0787 
     12 C12        31.2056   -0.9985   -3.0373 C.ar      12 UNK        -0.0862 
     13 C13        30.4394   -0.5402   -1.9611 C.ar      12 UNK        -0.0733 
     14 C14        30.1189   -1.4241   -0.9264 C.ar      12 UNK        -0.0832 
     15 C15        29.9768    0.9095   -1.8954 C.3       12 UNK         0.0240 
     16 S16        28.4555    1.1948   -2.8564 S.3       12 UNK        -0.2522 
     17 C17        29.1476    1.6758   -4.4717 C.3       12 UNK        -0.0967 
     18 CA         28.2040    1.4718   -5.6775 C.3       5 UNK         0.0660 
     19 N          27.7114    0.0973   -5.8294 N.am      5 UNK        -0.4015 
     20 C          27.2045   -0.3629   -6.9838 C.2       4 UNK         0.4946 
     21 O          27.0805    0.3314   -7.9925 O.2       4 UNK        -0.5353 
     22 CA         26.6996   -1.8093   -7.0157 C.3       4 UNK         0.0277 
     23 CB         27.8547   -2.8190   -6.9043 C.3       4 UNK        -0.1981 
     24 N          25.7106   -2.0336   -5.9640 N.am      4 UNK        -0.4209 
     25 C          24.4509   -1.5713   -6.0104 C.2       3 UNK         0.4942 
     26 O          23.9823   -0.9575   -6.9685 O.2       3 UNK        -0.5208 
     27 CA         23.5550   -1.8250   -4.7846 C.3       3 UNK         0.0250 
     28 CB         22.6801   -3.0689   -5.0081 C.3       3 UNK        -0.1990 
     29 N          24.3020   -1.9792   -3.5355 N.am      3 UNK        -0.4232 
     30 C          25.0255   -1.0133   -2.9521 C.2       2 UNK         0.4993 
     31 O          25.1184    0.1333   -3.3879 O.2       2 UNK        -0.5286 
     32 CA         25.8303   -1.4293   -1.7113 C.3       2 UNK         0.0209 
     33 CB         24.9597   -1.3713   -0.4466 C.3       2 UNK        -0.1931 
     34 N          26.4228   -2.7654   -1.8451 N.am      2 UNK        -0.4546 
     35 C          27.3598   -3.0830   -2.7492 C.2       1 UNK         0.5154 
     36 O          27.7703   -2.2801   -3.5960 O.2       1 UNK        -0.5181 
     37 C          27.0883    2.5344   -5.7671 C.2       5 UNK         0.5014 
     38 O          27.3560    3.6253   -6.2726 O.2       5 UNK        -0.5248 
     39 N          25.8483    2.1935   -5.3794 N.am      6 UNK        -0.4434 
     40 CA         24.6544    3.0130   -5.6310 C.3       6 UNK         0.0363 
     41 CB         23.4433    2.4051   -4.9075 C.3       6 UNK        -0.1936 
     42 C          24.3372    3.2034   -7.1290 C.2       6 UNK         0.5081 
     43 O          23.7539    4.2241   -7.4937 O.2       6 UNK        -0.5248 
     44 N          24.7485    2.2443   -7.9696 N.am      7 UNK        -0.4718 
     45 CA         24.6669    2.2988   -9.4318 C.3       7 UNK         0.0273 
     46 CB         24.2788    0.9034   -9.9535 C.3       7 UNK        -0.1935 
     47 C          25.9823    2.7903  -10.0726 C.2       7 UNK         0.5018 
     48 O          26.1263    2.6901  -11.2916 O.2       7 UNK        -0.5186 
     49 N          26.9154    3.3000   -9.2521 N.am      8 UNK        -0.4240 
     50 CA         28.2503    3.8080   -9.5924 C.3       8 UNK         0.0235 
     51 CB         28.1711    4.9894  -10.5831 C.3       8 UNK        -0.2000 
     52 C          29.2583    2.7301  -10.0396 C.2       8 UNK         0.4941 
     53 O          30.3343    3.0846  -10.5256 O.2       8 UNK        -0.5273 
     54 N          28.9501    1.4430   -9.8284 N.am      9 UNK        -0.4262 
     55 CA         29.8619    0.3227  -10.0580 C.3       9 UNK         0.0264 
     56 CB         29.0554   -0.9197  -10.4787 C.3       9 UNK        -0.1955 
     57 C          30.6921    0.0936   -8.7860 C.2       9 UNK         0.5031 
     58 O          30.4494   -0.8603   -8.0436 O.2       9 UNK        -0.5390 
     59 N          31.6374    1.0072   -8.5322 N.am      10 UNK        -0.4204 
     60 CA         32.5054    1.0461   -7.3518 C.3       10 UNK         0.0237 
     61 CB         33.1164    2.4543   -7.2315 C.3       10 UNK        -0.1985 
     62 C          33.5715   -0.0689   -7.3534 C.2       10 UNK         0.4970 
     63 O          34.7669    0.2141   -7.4478 O.2       10 UNK        -0.4914 
     64 N          33.0993   -1.3155   -7.2517 N.am      11 UNK        -0.4285 
     65 CA         33.8737   -2.5647   -7.1492 C.3       11 UNK         0.1007 
     66 C          34.6016   -2.9910   -8.4602 C.2       11 UNK         0.5703 
     67 N          34.3083   -2.3910   -9.6079 N.am      11 UNK        -0.7361 
     68 O          35.4227   -3.9053   -8.4469 O.2       11 UNK        -0.4986 
     69 C69        34.8143   -2.6173   -5.9048 C.3       12 UNK        -0.0947 
     70 S70        34.1054   -2.0720   -4.3073 S.3       12 UNK        -0.2240 
     71 C71        32.4421   -2.8114   -4.2875 C.3       12 UNK         0.0194 
     72 H72        30.3866   -4.5193   -5.8860 H         1 UNK         0.0906 
     73 H73        31.1102   -6.0660   -5.4343 H         1 UNK         0.0906 
     74 H74        29.7731   -6.0149   -6.5868 H         1 UNK         0.0906 
     75 H75        29.1927   -3.7157   -4.1310 H         1 UNK         0.3140 
     76 H76        27.0023   -5.1257   -3.0877 H         1 UNK         0.1085 
     77 H77        27.7963   -6.0612   -1.2234 H         1 UNK         0.0836 
     78 H78        29.4048   -5.5987   -1.5984 H         1 UNK         0.0836 
     79 H79        30.8395   -4.5877    0.1527 H         1 UNK         0.0731 
     80 H80        30.3927   -3.2100    1.1257 H         1 UNK         0.0731 
     81 H81        31.6551   -4.2252   -2.0821 H         1 UNK         0.1312 
     82 H82        31.4780   -0.3263   -3.8367 H         1 UNK         0.1406 
     83 H83        29.5226   -1.0825   -0.0912 H         1 UNK         0.1631 
     84 H84        30.7697    1.5745   -2.2412 H         1 UNK         0.0717 
     85 H85        29.7844    1.1902   -0.8588 H         1 UNK         0.0717 
     86 H86        29.4742    2.7161   -4.4124 H         1 UNK         0.0934 
     87 H87        30.0538    1.1019   -4.6517 H         1 UNK         0.0934 
     88 H88        28.8278    1.6554   -6.5563 H         1 UNK         0.0739 
     89 H89        27.7626   -0.5074   -5.0166 H         1 UNK         0.3093 
     90 H90        26.2120   -1.9727   -7.9796 H         1 UNK         0.0818 
     91 H91        27.4874   -3.8428   -6.8349 H         1 UNK         0.0819 
     92 H92        28.4964   -2.7657   -7.7841 H         1 UNK         0.0819 
     93 H93        28.4903   -2.6269   -6.0412 H         1 UNK         0.0819 
     94 H94        26.0411   -2.4683   -5.1139 H         1 UNK         0.3041 
     95 H95        22.8976   -0.9603   -4.6747 H         1 UNK         0.0784 
     96 H96        22.0886   -2.9702   -5.9197 H         1 UNK         0.0793 
     97 H97        23.2806   -3.9743   -5.1063 H         1 UNK         0.0793 
     98 H98        21.9801   -3.2159   -4.1854 H         1 UNK         0.0793 
     99 H99        24.2880   -2.8914   -3.1031 H         1 UNK         0.3024 
    100 H100       26.6472   -0.7144   -1.5964 H         1 UNK         0.1171 
    101 H101       24.5251   -0.3787   -0.3194 H         1 UNK         0.0786 
    102 H102       25.5471   -1.5829    0.4472 H         1 UNK         0.0786 
    103 H103       24.1368   -2.0860   -0.4855 H         1 UNK         0.0786 
    104 H104       26.1559   -3.4583   -1.1598 H         1 UNK         0.2977 
    105 H105       25.7047    1.3158   -4.8858 H         1 UNK         0.3127 
    106 H106       24.8395    4.0032   -5.2095 H         1 UNK         0.0770 
    107 H107       23.2267    1.3988   -5.2665 H         1 UNK         0.0814 
    108 H108       22.5485    3.0084   -5.0666 H         1 UNK         0.0814 
    109 H109       23.6088    2.3517   -3.8314 H         1 UNK         0.0814 
    110 H110       25.2409    1.4415   -7.5939 H         1 UNK         0.2983 
    111 H111       23.8856    3.0001   -9.7321 H         1 UNK         0.0947 
    112 H112       24.1303    0.9129  -11.0340 H         1 UNK         0.0806 
    113 H113       23.3487    0.5570   -9.5026 H         1 UNK         0.0806 
    114 H114       25.0486    0.1623   -9.7360 H         1 UNK         0.0806 
    115 H115       26.7009    3.3198   -8.2613 H         1 UNK         0.3000 
    116 H116       28.6521    4.2026   -8.6581 H         1 UNK         0.0850 
    117 H117       29.1418    5.4747  -10.6915 H         1 UNK         0.0810 
    118 H118       27.4686    5.7491  -10.2403 H         1 UNK         0.0810 
    119 H119       27.8607    4.6669  -11.5772 H         1 UNK         0.0810 
    120 H120       28.0906    1.2138   -9.3329 H         1 UNK         0.3040 
    121 H121       30.5493    0.5579  -10.8734 H         1 UNK         0.0766 
    122 H122       28.5091   -0.7393  -11.4045 H         1 UNK         0.0812 
    123 H123       28.3323   -1.2173   -9.7206 H         1 UNK         0.0812 
    124 H124       29.7147   -1.7714  -10.6500 H         1 UNK         0.0812 
    125 H125       31.7463    1.7624   -9.1980 H         1 UNK         0.3205 
    126 H126       31.8819    0.8851   -6.4697 H         1 UNK         0.0754 
    127 H127       33.7468    2.5324   -6.3445 H         1 UNK         0.0769 
    128 H128       32.3418    3.2166   -7.1436 H         1 UNK         0.0769 
    129 H129       33.7350    2.7021   -8.0950 H         1 UNK         0.0769 
    130 H130       32.0886   -1.4216   -7.2987 H         1 UNK         0.2981 
    131 H131       33.1241   -3.3440   -7.0130 H         1 UNK         0.0541 
    132 H132       33.6354   -1.6431   -9.6345 H         1 UNK         0.3459 
    133 H133       34.7769   -2.6828  -10.4511 H         1 UNK         0.3459 
    134 H134       35.1807   -3.6352   -5.7615 H         1 UNK         0.0612 
    135 H135       35.7008   -2.0068   -6.0845 H         1 UNK         0.0612 
    136 H136       31.8913   -2.5428   -5.1877 H         1 UNK         0.0624 
    137 H137       32.5333   -3.8985   -4.2853 H         1 UNK         0.0624 
@<TRIPOS>BOND
     1    1    2 1    
     2    1   72 1    
     3    1   73 1    
     4    1   74 1    
     5    2    3 2    
     6    2    4 am   BACKBONE|DICT|INTERRES
     7    4    5 1    
     8    4   75 1    
     9    5    6 1    
    10    5   35 1    
    11    5   76 1    
    12    6    7 1    
    13    6   77 1    
    14    6   78 1    
    15    7    8 1    
    16    8    9 1    
    17    8   79 1    
    18    8   80 1    
    19    9   10 ar   
    20    9   14 ar   
    21   10   11 ar   
    22   10   81 1    
    23   11   12 ar   
    24   11   71 1    
    25   12   13 ar   
    26   12   82 1    
    27   13   14 ar   
    28   13   15 1    
    29   14   83 1    
    30   15   16 1    
    31   15   84 1    
    32   15   85 1    
    33   16   17 1    
    34   17   18 1    
    35   17   86 1    
    36   17   87 1    
    37   18   19 1    
    38   18   37 1    
    39   18   88 1    
    40   19   20 am   BACKBONE|DICT|INTERRES
    41   19   89 1    
    42   20   21 2    
    43   20   22 1    
    44   22   23 1    
    45   22   24 1    
    46   22   90 1    
    47   23   91 1    
    48   23   92 1    
    49   23   93 1    
    50   24   25 am   BACKBONE|DICT|INTERRES
    51   24   94 1    
    52   25   26 2    
    53   25   27 1    
    54   27   28 1    
    55   27   29 1    
    56   27   95 1    
    57   28   96 1    
    58   28   97 1    
    59   28   98 1    
    60   29   30 am   BACKBONE|DICT|INTERRES
    61   29   99 1    
    62   30   31 2    
    63   30   32 1    
    64   32   33 1    
    65   32   34 1    
    66   32  100 1    
    67   33  101 1    
    68   33  102 1    
    69   33  103 1    
    70   34   35 am   BACKBONE|DICT|INTERRES
    71   34  104 1    
    72   35   36 2    
    73   37   38 2    
    74   37   39 am   BACKBONE|DICT|INTERRES
    75   39   40 1    
    76   39  105 1    
    77   40   41 1    
    78   40   42 1    
    79   40  106 1    
    80   41  107 1    
    81   41  108 1    
    82   41  109 1    
    83   42   43 2    
    84   42   44 am   BACKBONE|DICT|INTERRES
    85   44   45 1    
    86   44  110 1    
    87   45   46 1    
    88   45   47 1    
    89   45  111 1    
    90   46  112 1    
    91   46  113 1    
    92   46  114 1    
    93   47   48 2    
    94   47   49 am   BACKBONE|DICT|INTERRES
    95   49   50 1    
    96   49  115 1    
    97   50   51 1    
    98   50   52 1    
    99   50  116 1    
   100   51  117 1    
   101   51  118 1    
   102   51  119 1    
   103   52   53 2    
   104   52   54 am   BACKBONE|DICT|INTERRES
   105   54   55 1    
   106   54  120 1    
   107   55   56 1    
   108   55   57 1    
   109   55  121 1    
   110   56  122 1    
   111   56  123 1    
   112   56  124 1    
   113   57   58 2    
   114   57   59 am   BACKBONE|DICT|INTERRES
   115   59   60 1    
   116   59  125 1    
   117   60   61 1    
   118   60   62 1    
   119   60  126 1    
   120   61  127 1    
   121   61  128 1    
   122   61  129 1    
   123   62   63 2    
   124   62   64 am   BACKBONE|DICT|INTERRES
   125   64   65 1    
   126   64  130 1    
   127   65   66 1    
   128   65   69 1    
   129   65  131 1    
   130   66   67 am   BACKBONE|DICT|INTERRES
   131   66   68 2    
   132   67  132 1    
   133   67  133 1    
   134   69   70 1    
   135   69  134 1    
   136   69  135 1    
   137   70   71 1    
   138   71  136 1    
   139   71  137 1    
@<TRIPOS>SUBSTRUCTURE
     1 UNK         1 GROUP             0       ****    0 ROOT    
