@<TRIPOS>MOLECULE
3R137
137   139    1
SMALL
USER_CHARGES


@<TRIPOS>ATOM
      1 CA         28.2606   -0.4100    2.7137 C.3       0 UNK        -0.2020 
      2 C          28.1216   -1.7568    2.0086 C.2       0 UNK         0.4855 
      3 O          27.7337   -2.7335    2.6461 O.2       0 UNK        -0.5197 
      4 N          28.4228   -1.8704    0.7066 N.am      1 UNK        -0.4892 
      5 CA         28.8729   -0.8036   -0.2031 C.3       1 UNK         0.0835 
      6 C6         29.5100   -1.3790   -1.4911 C.3       12 UNK        -0.0855 
      7 S7         30.9531   -2.4413   -1.1613 S.3       12 UNK        -0.2931 
      8 C8         30.3826   -4.0533   -1.8002 C.3       12 UNK         0.0378 
      9 C9         30.3369   -4.1355   -3.3253 C.ar      12 UNK        -0.0802 
     10 C10        31.4152   -3.6934   -4.0996 C.ar      12 UNK        -0.0944 
     11 C11        31.4088   -3.8449   -5.4893 C.ar      12 UNK        -0.0787 
     12 C12        30.3088   -4.4475   -6.1110 C.ar      12 UNK        -0.0862 
     13 C13        29.2336   -4.9175   -5.3487 C.ar      12 UNK        -0.0733 
     14 C14        29.2470   -4.7417   -3.9602 C.ar      12 UNK        -0.0832 
     15 C15        28.1053   -5.7092   -6.0001 C.3       12 UNK         0.0240 
     16 S16        26.6384   -4.6950   -6.3633 S.3       12 UNK        -0.2522 
     17 C17        26.8168   -4.3643   -8.1567 C.3       12 UNK        -0.0967 
     18 CA         26.5249   -2.8974   -8.5659 C.3       5 UNK         0.0660 
     19 N          25.2426   -2.4145   -8.0445 N.am      5 UNK        -0.4015 
     20 C          24.6800   -1.2339   -8.3387 C.2       4 UNK         0.4946 
     21 O          25.1417   -0.4341   -9.1513 O.2       4 UNK        -0.5353 
     22 CA         23.4080   -0.8585   -7.5608 C.3       4 UNK         0.0277 
     23 CB         22.1601   -1.4055   -8.2720 C.3       4 UNK        -0.1981 
     24 N          23.4171   -1.3056   -6.1632 N.am      4 UNK        -0.4209 
     25 C          24.3108   -0.9183   -5.2430 C.2       3 UNK         0.4942 
     26 O          25.2616   -0.1663   -5.4750 O.2       3 UNK        -0.5208 
     27 CA         24.1319   -1.4984   -3.8378 C.3       3 UNK         0.0250 
     28 CB         24.7561   -2.9021   -3.7383 C.3       3 UNK        -0.1990 
     29 N          24.7780   -0.6105   -2.8773 N.am      3 UNK        -0.4232 
     30 C          24.4012   -0.4406   -1.6065 C.2       2 UNK         0.4993 
     31 O          23.4565   -1.0345   -1.0829 O.2       2 UNK        -0.5286 
     32 CA         25.2799    0.4941   -0.7684 C.3       2 UNK         0.0209 
     33 CB         24.5882    0.9757    0.5218 C.3       2 UNK        -0.1931 
     34 N          26.4859   -0.2493   -0.4183 N.am      2 UNK        -0.4546 
     35 C          27.7426    0.1786   -0.5824 C.2       1 UNK         0.5154 
     36 O          28.0320    1.2943   -1.0146 O.2       1 UNK        -0.5181 
     37 C          27.6868   -1.9612   -8.1899 C.2       5 UNK         0.5014 
     38 O          28.4430   -1.5455   -9.0680 O.2       5 UNK        -0.5248 
     39 N          27.7710   -1.6193   -6.8981 N.am      6 UNK        -0.4434 
     40 CA         28.7732   -0.7203   -6.3380 C.3       6 UNK         0.0363 
     41 CB         28.7035   -0.7561   -4.8075 C.3       6 UNK        -0.1936 
     42 C          28.6422    0.7139   -6.8598 C.2       6 UNK         0.5081 
     43 O          29.6627    1.3484   -7.1219 O.2       6 UNK        -0.5248 
     44 N          27.4000    1.1859   -7.0287 N.am      7 UNK        -0.4718 
     45 CA         27.0858    2.4816   -7.6298 C.3       7 UNK         0.0273 
     46 CB         25.5915    2.7891   -7.4444 C.3       7 UNK        -0.1935 
     47 C          27.4856    2.5542   -9.1135 C.2       7 UNK         0.5018 
     48 O          28.1018    3.5392   -9.5205 O.2       7 UNK        -0.5186 
     49 N          27.1481    1.5110   -9.8863 N.am      8 UNK        -0.4240 
     50 CA         27.4572    1.4010  -11.3140 C.3       8 UNK         0.0235 
     51 CB         26.6717    0.2310  -11.9286 C.3       8 UNK        -0.2000 
     52 C          28.9598    1.2515  -11.5978 C.2       8 UNK         0.4941 
     53 O          29.4769    1.9390  -12.4794 O.2       8 UNK        -0.5273 
     54 N          29.6336    0.3634  -10.8541 N.am      9 UNK        -0.4262 
     55 CA         31.0663    0.0888  -11.0017 C.3       9 UNK         0.0264 
     56 CB         31.3578   -1.3309  -10.4920 C.3       9 UNK        -0.1955 
     57 C          31.9741    1.1222  -10.3075 C.2       9 UNK         0.5031 
     58 O          33.1798    1.1086  -10.5607 O.2       9 UNK        -0.5390 
     59 N          31.3950    1.9865   -9.4596 N.am      10 UNK        -0.4204 
     60 CA         32.0486    3.0105   -8.6355 C.3       10 UNK         0.0237 
     61 CB         32.7012    4.1020   -9.5114 C.3       10 UNK        -0.1985 
     62 C          33.0122    2.3915   -7.6045 C.2       10 UNK         0.4970 
     63 O          34.1731    2.7966   -7.5140 O.2       10 UNK        -0.4914 
     64 N          32.5034    1.4086   -6.8518 N.am      11 UNK        -0.4285 
     65 CA         33.2426    0.6775   -5.8080 C.3       11 UNK         0.1007 
     66 C          33.4548    1.4810   -4.4923 C.2       11 UNK         0.5703 
     67 N          32.7698    2.5981   -4.2746 N.am      11 UNK        -0.7361 
     68 O          34.2657    1.0872   -3.6574 O.2       11 UNK        -0.4986 
     69 C69        32.6132   -0.7091   -5.5090 C.3       12 UNK        -0.0947 
     70 S70        32.4815   -1.7575   -6.9948 S.3       12 UNK        -0.2240 
     71 C71        32.6283   -3.4325   -6.3046 C.3       12 UNK         0.0194 
     72 H72        29.2548    0.0118    2.5724 H         1 UNK         0.0906 
     73 H73        27.5183    0.2998    2.3508 H         1 UNK         0.0906 
     74 H74        28.1067   -0.5266    3.7863 H         1 UNK         0.0906 
     75 H75        28.3540   -2.7853    0.2852 H         1 UNK         0.3140 
     76 H76        29.6414   -0.2182    0.3051 H         1 UNK         0.1085 
     77 H77        29.8593   -0.5677   -2.1318 H         1 UNK         0.0836 
     78 H78        28.7692   -1.9335   -2.0700 H         1 UNK         0.0836 
     79 H79        29.4073   -4.2812   -1.3677 H         1 UNK         0.0731 
     80 H80        31.0633   -4.8254   -1.4394 H         1 UNK         0.0731 
     81 H81        32.2759   -3.2538   -3.6148 H         1 UNK         0.1312 
     82 H82        30.3120   -4.5904   -7.1829 H         1 UNK         0.1406 
     83 H83        28.4232   -5.1205   -3.3702 H         1 UNK         0.1631 
     84 H84        27.8008   -6.5127   -5.3278 H         1 UNK         0.0717 
     85 H85        28.4579   -6.2082   -6.9038 H         1 UNK         0.0717 
     86 H86        27.8101   -4.6605   -8.4998 H         1 UNK         0.0934 
     87 H87        26.1241   -5.0260   -8.6790 H         1 UNK         0.0934 
     88 H88        26.4484   -2.8718   -9.6552 H         1 UNK         0.0739 
     89 H89        24.7962   -3.0042   -7.3578 H         1 UNK         0.3093 
     90 H90        23.3430    0.2314   -7.5532 H         1 UNK         0.0818 
     91 H91        21.2449   -1.0600   -7.7908 H         1 UNK         0.0819 
     92 H92        22.1242   -1.0685   -9.3092 H         1 UNK         0.0819 
     93 H93        22.1438   -2.4960   -8.2832 H         1 UNK         0.0819 
     94 H94        22.6732   -1.9298   -5.8843 H         1 UNK         0.3041 
     95 H95        23.0622   -1.5544   -3.6233 H         1 UNK         0.0784 
     96 H96        24.3055   -3.5886   -4.4561 H         1 UNK         0.0793 
     97 H97        25.8293   -2.8800   -3.9329 H         1 UNK         0.0793 
     98 H98        24.6077   -3.3315   -2.7474 H         1 UNK         0.0793 
     99 H99        25.5328   -0.0581   -3.2650 H         1 UNK         0.3024 
    100 H100       25.5181    1.3683   -1.3796 H         1 UNK         0.1171 
    101 H101       25.2230    1.6696    1.0730 H         1 UNK         0.0786 
    102 H102       23.6578    1.4974    0.2939 H         1 UNK         0.0786 
    103 H103       24.3451    0.1465    1.1875 H         1 UNK         0.0786 
    104 H104       26.3427   -1.1937   -0.0861 H         1 UNK         0.2977 
    105 H105       27.0908   -2.0005   -6.2573 H         1 UNK         0.3127 
    106 H106       29.7496   -1.0924   -6.6459 H         1 UNK         0.0770 
    107 H107       27.7128   -0.4968   -4.4350 H         1 UNK         0.0814 
    108 H108       28.9591   -1.7474   -4.4353 H         1 UNK         0.0814 
    109 H109       29.4089   -0.0482   -4.3722 H         1 UNK         0.0814 
    110 H110       26.6186    0.6123   -6.7242 H         1 UNK         0.2983 
    111 H111       27.6586    3.2427   -7.0952 H         1 UNK         0.0947 
    112 H112       25.3126    2.7798   -6.3905 H         1 UNK         0.0806 
    113 H113       24.9620    2.0655   -7.9622 H         1 UNK         0.0806 
    114 H114       25.3453    3.7761   -7.8380 H         1 UNK         0.0806 
    115 H115       26.5986    0.7560   -9.4810 H         1 UNK         0.3000 
    116 H116       27.1216    2.3214  -11.7970 H         1 UNK         0.0850 
    117 H117       26.8858    0.1305  -12.9935 H         1 UNK         0.0810 
    118 H118       25.5966    0.3804  -11.8267 H         1 UNK         0.0810 
    119 H119       26.9220   -0.7178  -11.4519 H         1 UNK         0.0810 
    120 H120       29.1301   -0.2000  -10.1693 H         1 UNK         0.3040 
    121 H121       31.3170    0.1142  -12.0644 H         1 UNK         0.0766 
    122 H122       31.0647   -1.4453   -9.4496 H         1 UNK         0.0812 
    123 H123       32.4199   -1.5695  -10.5629 H         1 UNK         0.0812 
    124 H124       30.8163   -2.0784  -11.0716 H         1 UNK         0.0812 
    125 H125       30.4053    1.8682   -9.2838 H         1 UNK         0.3205 
    126 H126       31.2533    3.4883   -8.0613 H         1 UNK         0.0754 
    127 H127       33.0812    4.9184   -8.8961 H         1 UNK         0.0769 
    128 H128       31.9820    4.5300  -10.2098 H         1 UNK         0.0769 
    129 H129       33.5406    3.7147  -10.0895 H         1 UNK         0.0769 
    130 H130       31.5196    1.1768   -6.9639 H         1 UNK         0.2981 
    131 H131       34.2446    0.4916   -6.1997 H         1 UNK         0.0541 
    132 H132       32.1011    2.9271   -4.9518 H         1 UNK         0.3459 
    133 H133       32.9217    3.1120   -3.4213 H         1 UNK         0.3459 
    134 H134       31.6204   -0.5973   -5.0737 H         1 UNK         0.0612 
    135 H135       33.2139   -1.2396   -4.7682 H         1 UNK         0.0612 
    136 H136       33.5341   -3.4975   -5.6999 H         1 UNK         0.0624 
    137 H137       32.7676   -4.1332   -7.1290 H         1 UNK         0.0624 
@<TRIPOS>BOND
     1    1    2 1    
     2    1   72 1    
     3    1   73 1    
     4    1   74 1    
     5    2    3 2    
     6    2    4 am   BACKBONE|DICT|INTERRES
     7    4    5 1    
     8    4   75 1    
     9    5    6 1    
    10    5   35 1    
    11    5   76 1    
    12    6    7 1    
    13    6   77 1    
    14    6   78 1    
    15    7    8 1    
    16    8    9 1    
    17    8   79 1    
    18    8   80 1    
    19    9   10 ar   
    20    9   14 ar   
    21   10   11 ar   
    22   10   81 1    
    23   11   12 ar   
    24   11   71 1    
    25   12   13 ar   
    26   12   82 1    
    27   13   14 ar   
    28   13   15 1    
    29   14   83 1    
    30   15   16 1    
    31   15   84 1    
    32   15   85 1    
    33   16   17 1    
    34   17   18 1    
    35   17   86 1    
    36   17   87 1    
    37   18   19 1    
    38   18   37 1    
    39   18   88 1    
    40   19   20 am   BACKBONE|DICT|INTERRES
    41   19   89 1    
    42   20   21 2    
    43   20   22 1    
    44   22   23 1    
    45   22   24 1    
    46   22   90 1    
    47   23   91 1    
    48   23   92 1    
    49   23   93 1    
    50   24   25 am   BACKBONE|DICT|INTERRES
    51   24   94 1    
    52   25   26 2    
    53   25   27 1    
    54   27   28 1    
    55   27   29 1    
    56   27   95 1    
    57   28   96 1    
    58   28   97 1    
    59   28   98 1    
    60   29   30 am   BACKBONE|DICT|INTERRES
    61   29   99 1    
    62   30   31 2    
    63   30   32 1    
    64   32   33 1    
    65   32   34 1    
    66   32  100 1    
    67   33  101 1    
    68   33  102 1    
    69   33  103 1    
    70   34   35 am   BACKBONE|DICT|INTERRES
    71   34  104 1    
    72   35   36 2    
    73   37   38 2    
    74   37   39 am   BACKBONE|DICT|INTERRES
    75   39   40 1    
    76   39  105 1    
    77   40   41 1    
    78   40   42 1    
    79   40  106 1    
    80   41  107 1    
    81   41  108 1    
    82   41  109 1    
    83   42   43 2    
    84   42   44 am   BACKBONE|DICT|INTERRES
    85   44   45 1    
    86   44  110 1    
    87   45   46 1    
    88   45   47 1    
    89   45  111 1    
    90   46  112 1    
    91   46  113 1    
    92   46  114 1    
    93   47   48 2    
    94   47   49 am   BACKBONE|DICT|INTERRES
    95   49   50 1    
    96   49  115 1    
    97   50   51 1    
    98   50   52 1    
    99   50  116 1    
   100   51  117 1    
   101   51  118 1    
   102   51  119 1    
   103   52   53 2    
   104   52   54 am   BACKBONE|DICT|INTERRES
   105   54   55 1    
   106   54  120 1    
   107   55   56 1    
   108   55   57 1    
   109   55  121 1    
   110   56  122 1    
   111   56  123 1    
   112   56  124 1    
   113   57   58 2    
   114   57   59 am   BACKBONE|DICT|INTERRES
   115   59   60 1    
   116   59  125 1    
   117   60   61 1    
   118   60   62 1    
   119   60  126 1    
   120   61  127 1    
   121   61  128 1    
   122   61  129 1    
   123   62   63 2    
   124   62   64 am   BACKBONE|DICT|INTERRES
   125   64   65 1    
   126   64  130 1    
   127   65   66 1    
   128   65   69 1    
   129   65  131 1    
   130   66   67 am   BACKBONE|DICT|INTERRES
   131   66   68 2    
   132   67  132 1    
   133   67  133 1    
   134   69   70 1    
   135   69  134 1    
   136   69  135 1    
   137   70   71 1    
   138   71  136 1    
   139   71  137 1    
@<TRIPOS>SUBSTRUCTURE
     1 UNK         1 GROUP             0       ****    0 ROOT    
