@<TRIPOS>MOLECULE
3R137
137   139    1
SMALL
USER_CHARGES


@<TRIPOS>ATOM
      1 CA         26.2448   -4.2229    1.6013 C.3       0 UNK        -0.2020 
      2 C          26.7138   -3.3918    0.4166 C.2       0 UNK         0.4855 
      3 O          26.2679   -3.6296   -0.7060 O.2       0 UNK        -0.5197 
      4 N          27.5991   -2.4160    0.6660 N.am      1 UNK        -0.4892 
      5 CA         28.2228   -1.4794   -0.2858 C.3       1 UNK         0.0835 
      6 C6         29.0115   -2.1615   -1.4328 C.3       12 UNK        -0.0855 
      7 S7         30.3585   -3.2486   -0.8367 S.3       12 UNK        -0.2931 
      8 C8         31.8275   -2.5950   -1.7128 C.3       12 UNK         0.0378 
      9 C9         32.0053   -3.1153   -3.1421 C.ar      12 UNK        -0.0802 
     10 C10        33.2878   -3.3888   -3.6269 C.ar      12 UNK        -0.0944 
     11 C11        33.4806   -3.8188   -4.9445 C.ar      12 UNK        -0.0787 
     12 C12        32.3725   -3.9737   -5.7844 C.ar      12 UNK        -0.0862 
     13 C13        31.0796   -3.7021   -5.3244 C.ar      12 UNK        -0.0733 
     14 C14        30.9149   -3.2878   -3.9987 C.ar      12 UNK        -0.0832 
     15 C15        29.9033   -3.8499   -6.2975 C.3       12 UNK         0.0240 
     16 S16        28.2221   -3.7264   -5.5775 S.3       12 UNK        -0.2522 
     17 C17        28.0712   -1.9361   -5.2392 C.3       12 UNK        -0.0967 
     18 CA         27.3592   -1.1823   -6.3821 C.3       5 UNK         0.0660 
     19 N          26.0032   -1.6691   -6.6337 N.am      5 UNK        -0.4015 
     20 C          25.3585   -1.4942   -7.7956 C.2       4 UNK         0.4946 
     21 O          25.8528   -0.9195   -8.7655 O.2       4 UNK        -0.5353 
     22 CA         23.9023   -1.9856   -7.8780 C.3       4 UNK         0.0277 
     23 CB         23.8533   -3.4325   -8.3929 C.3       4 UNK        -0.1981 
     24 N          23.1763   -1.8911   -6.6071 N.am      4 UNK        -0.4209 
     25 C          22.9941   -0.7579   -5.9149 C.2       3 UNK         0.4942 
     26 O          23.4036    0.3393   -6.2974 O.2       3 UNK        -0.5208 
     27 CA         22.2879   -0.8529   -4.5496 C.3       3 UNK         0.0250 
     28 CB         21.7703   -2.2665   -4.1953 C.3       3 UNK        -0.1990 
     29 N          23.1365   -0.3319   -3.4694 N.am      3 UNK        -0.4232 
     30 C          24.3598   -0.7615   -3.1213 C.2       2 UNK         0.4993 
     31 O          24.9606   -1.6652   -3.7087 O.2       2 UNK        -0.5286 
     32 CA         25.0273   -0.0493   -1.9318 C.3       2 UNK         0.0209 
     33 CB         24.0378    0.3056   -0.8014 C.3       2 UNK        -0.1931 
     34 N          26.1023   -0.8782   -1.3901 N.am      2 UNK        -0.4546 
     35 C          27.2340   -0.4292   -0.8383 C.2       1 UNK         0.5154 
     36 O          27.5100    0.7671   -0.7370 O.2       1 UNK        -0.5181 
     37 C          27.4054    0.3426   -6.1598 C.2       5 UNK         0.5014 
     38 O          28.4689    0.9266   -6.3604 O.2       5 UNK        -0.5248 
     39 N          26.2846    0.9869   -5.7947 N.am      6 UNK        -0.4434 
     40 CA         26.1953    2.4509   -5.7562 C.3       6 UNK         0.0363 
     41 CB         24.9913    2.9098   -4.9175 C.3       6 UNK        -0.1936 
     42 C          26.1301    3.0327   -7.1768 C.2       6 UNK         0.5081 
     43 O          26.7815    4.0409   -7.4470 O.2       6 UNK        -0.5248 
     44 N          25.3871    2.3597   -8.0683 N.am      7 UNK        -0.4718 
     45 CA         25.3003    2.6904   -9.4931 C.3       7 UNK         0.0273 
     46 CB         24.1435    1.9087  -10.1364 C.3       7 UNK        -0.1935 
     47 C          26.6218    2.4380  -10.2407 C.2       7 UNK         0.5018 
     48 O          27.0186    3.2673  -11.0598 O.2       7 UNK        -0.5186 
     49 N          27.2904    1.3173   -9.9303 N.am      8 UNK        -0.4240 
     50 CA         28.5939    0.9433  -10.4918 C.3       8 UNK         0.0235 
     51 CB         28.8335   -0.5579  -10.2611 C.3       8 UNK        -0.2000 
     52 C          29.7803    1.7566   -9.9368 C.2       8 UNK         0.4941 
     53 O          30.8567    1.7001  -10.5321 O.2       8 UNK        -0.5273 
     54 N          29.5728    2.4764   -8.8222 N.am      9 UNK        -0.4262 
     55 CA         30.5639    3.2294   -8.0435 C.3       9 UNK         0.0264 
     56 CB         31.1665    4.3902   -8.8641 C.3       9 UNK        -0.1955 
     57 C          31.6252    2.2950   -7.4326 C.2       9 UNK         0.5031 
     58 O          32.8165    2.4157   -7.7306 O.2       9 UNK        -0.5390 
     59 N          31.1468    1.3615   -6.5988 N.am      10 UNK        -0.4204 
     60 CA         31.8814    0.2731   -5.9531 C.3       10 UNK         0.0237 
     61 CB         32.8827    0.8124   -4.9054 C.3       10 UNK        -0.1985 
     62 C          32.4863   -0.6672   -7.0080 C.2       10 UNK         0.4970 
     63 O          31.7417   -1.1773   -7.8468 O.2       10 UNK        -0.4914 
     64 N          33.8031   -0.8889   -6.9463 N.am      11 UNK        -0.4285 
     65 CA         34.5448   -1.7802   -7.8477 C.3       11 UNK         0.1007 
     66 C          34.6878   -1.2615   -9.3101 C.2       11 UNK         0.5703 
     67 N          34.3310   -0.0199   -9.6202 N.am      11 UNK        -0.7361 
     68 O          35.1305   -2.0057  -10.1820 O.2       11 UNK        -0.4986 
     69 C69        35.9272   -2.1820   -7.2640 C.3       12 UNK        -0.0947 
     70 S70        35.9382   -2.6438   -5.4954 S.3       12 UNK        -0.2240 
     71 C71        34.8863   -4.1309   -5.4447 C.3       12 UNK         0.0194 
     72 H72        26.4838   -5.2735    1.4387 H         1 UNK         0.0906 
     73 H73        25.1651   -4.1333    1.7180 H         1 UNK         0.0906 
     74 H74        26.7142   -3.9093    2.5335 H         1 UNK         0.0906 
     75 H75        27.8930   -2.2796    1.6237 H         1 UNK         0.3140 
     76 H76        28.9484   -0.9164    0.3043 H         1 UNK         0.1085 
     77 H77        29.4349   -1.4006   -2.0915 H         1 UNK         0.0836 
     78 H78        28.3397   -2.7580   -2.0521 H         1 UNK         0.0836 
     79 H79        31.7950   -1.5049   -1.7287 H         1 UNK         0.0731 
     80 H80        32.7029   -2.8614   -1.1185 H         1 UNK         0.0731 
     81 H81        34.1460   -3.2596   -2.9812 H         1 UNK         0.1312 
     82 H82        32.5149   -4.3001   -6.8055 H         1 UNK         0.1406 
     83 H83        29.9272   -3.0944   -3.6270 H         1 UNK         0.1631 
     84 H84        29.9796   -4.8229   -6.7848 H         1 UNK         0.0717 
     85 H85        29.9993   -3.1046   -7.0880 H         1 UNK         0.0717 
     86 H86        27.5336   -1.8063   -4.2986 H         1 UNK         0.0934 
     87 H87        29.0650   -1.5163   -5.0805 H         1 UNK         0.0934 
     88 H88        27.9426   -1.3705   -7.2841 H         1 UNK         0.0739 
     89 H89        25.5290   -2.1056   -5.8519 H         1 UNK         0.3093 
     90 H90        23.3860   -1.3473   -8.5981 H         1 UNK         0.0818 
     91 H91        24.3688   -3.5224   -9.3503 H         1 UNK         0.0819 
     92 H92        24.3317   -4.1255   -7.6994 H         1 UNK         0.0819 
     93 H93        22.8268   -3.7652   -8.5481 H         1 UNK         0.0819 
     94 H94        22.8263   -2.7532   -6.2145 H         1 UNK         0.3041 
     95 H95        21.4232   -0.1906   -4.6133 H         1 UNK         0.0784 
     96 H96        21.0696   -2.6336   -4.9465 H         1 UNK         0.0793 
     97 H97        22.5781   -2.9939   -4.1038 H         1 UNK         0.0793 
     98 H98        21.2351   -2.2558   -3.2456 H         1 UNK         0.0793 
     99 H99        22.7428    0.4403   -2.9505 H         1 UNK         0.3024 
    100 H100       25.4614    0.8718   -2.3242 H         1 UNK         0.1171 
    101 H101       23.2922    1.0309   -1.1281 H         1 UNK         0.0786 
    102 H102       23.5087   -0.5774   -0.4403 H         1 UNK         0.0786 
    103 H103       24.5534    0.7520    0.0493 H         1 UNK         0.0786 
    104 H104       25.9710   -1.8859   -1.4592 H         1 UNK         0.2977 
    105 H105       25.4145    0.4736   -5.7121 H         1 UNK         0.3127 
    106 H106       27.0965    2.8403   -5.2766 H         1 UNK         0.0770 
    107 H107       24.0408    2.6125   -5.3590 H         1 UNK         0.0814 
    108 H108       24.9761    3.9973   -4.8343 H         1 UNK         0.0814 
    109 H109       25.0332    2.5135   -3.9050 H         1 UNK         0.0814 
    110 H110       24.8697    1.5496   -7.7513 H         1 UNK         0.2983 
    111 H111       25.0753    3.7562   -9.5756 H         1 UNK         0.0947 
    112 H112       24.2998    0.8311  -10.0829 H         1 UNK         0.0806 
    113 H113       24.0371    2.1695  -11.1902 H         1 UNK         0.0806 
    114 H114       23.1941    2.1335   -9.6500 H         1 UNK         0.0806 
    115 H115       26.8423    0.6384   -9.3193 H         1 UNK         0.3000 
    116 H116       28.5574    1.1176  -11.5693 H         1 UNK         0.0850 
    117 H117       29.7316   -0.8922  -10.7823 H         1 UNK         0.0810 
    118 H118       28.0018   -1.1602  -10.6272 H         1 UNK         0.0810 
    119 H119       28.9775   -0.7822   -9.2049 H         1 UNK         0.0810 
    120 H120       28.6508    2.4284   -8.4098 H         1 UNK         0.3040 
    121 H121       30.0202    3.6717   -7.2069 H         1 UNK         0.0766 
    122 H122       31.7641    4.0333   -9.7032 H         1 UNK         0.0812 
    123 H123       31.8195    5.0040   -8.2426 H         1 UNK         0.0812 
    124 H124       30.3871    5.0414   -9.2597 H         1 UNK         0.0812 
    125 H125       30.1310    1.3020   -6.4952 H         1 UNK         0.3205 
    126 H126       31.1395   -0.3198   -5.4174 H         1 UNK         0.0754 
    127 H127       33.3548   -0.0036   -4.3558 H         1 UNK         0.0769 
    128 H128       32.3751    1.4361   -4.1696 H         1 UNK         0.0769 
    129 H129       33.6719    1.4150   -5.3563 H         1 UNK         0.0769 
    130 H130       34.3456   -0.4303   -6.2304 H         1 UNK         0.2981 
    131 H131       33.9578   -2.6957   -7.9293 H         1 UNK         0.0541 
    132 H132       34.4211    0.2962  -10.5723 H         1 UNK         0.3459 
    133 H133       33.9380    0.5944   -8.9209 H         1 UNK         0.3459 
    134 H134       36.6310   -1.3551   -7.3755 H         1 UNK         0.0612 
    135 H135       36.3494   -3.0127   -7.8325 H         1 UNK         0.0612 
    136 H136       35.3441   -4.8552   -4.7697 H         1 UNK         0.0624 
    137 H137       34.8622   -4.6044   -6.4273 H         1 UNK         0.0624 
@<TRIPOS>BOND
     1    1    2 1    
     2    1   72 1    
     3    1   73 1    
     4    1   74 1    
     5    2    3 2    
     6    2    4 am   BACKBONE|DICT|INTERRES
     7    4    5 1    
     8    4   75 1    
     9    5    6 1    
    10    5   35 1    
    11    5   76 1    
    12    6    7 1    
    13    6   77 1    
    14    6   78 1    
    15    7    8 1    
    16    8    9 1    
    17    8   79 1    
    18    8   80 1    
    19    9   10 ar   
    20    9   14 ar   
    21   10   11 ar   
    22   10   81 1    
    23   11   12 ar   
    24   11   71 1    
    25   12   13 ar   
    26   12   82 1    
    27   13   14 ar   
    28   13   15 1    
    29   14   83 1    
    30   15   16 1    
    31   15   84 1    
    32   15   85 1    
    33   16   17 1    
    34   17   18 1    
    35   17   86 1    
    36   17   87 1    
    37   18   19 1    
    38   18   37 1    
    39   18   88 1    
    40   19   20 am   BACKBONE|DICT|INTERRES
    41   19   89 1    
    42   20   21 2    
    43   20   22 1    
    44   22   23 1    
    45   22   24 1    
    46   22   90 1    
    47   23   91 1    
    48   23   92 1    
    49   23   93 1    
    50   24   25 am   BACKBONE|DICT|INTERRES
    51   24   94 1    
    52   25   26 2    
    53   25   27 1    
    54   27   28 1    
    55   27   29 1    
    56   27   95 1    
    57   28   96 1    
    58   28   97 1    
    59   28   98 1    
    60   29   30 am   BACKBONE|DICT|INTERRES
    61   29   99 1    
    62   30   31 2    
    63   30   32 1    
    64   32   33 1    
    65   32   34 1    
    66   32  100 1    
    67   33  101 1    
    68   33  102 1    
    69   33  103 1    
    70   34   35 am   BACKBONE|DICT|INTERRES
    71   34  104 1    
    72   35   36 2    
    73   37   38 2    
    74   37   39 am   BACKBONE|DICT|INTERRES
    75   39   40 1    
    76   39  105 1    
    77   40   41 1    
    78   40   42 1    
    79   40  106 1    
    80   41  107 1    
    81   41  108 1    
    82   41  109 1    
    83   42   43 2    
    84   42   44 am   BACKBONE|DICT|INTERRES
    85   44   45 1    
    86   44  110 1    
    87   45   46 1    
    88   45   47 1    
    89   45  111 1    
    90   46  112 1    
    91   46  113 1    
    92   46  114 1    
    93   47   48 2    
    94   47   49 am   BACKBONE|DICT|INTERRES
    95   49   50 1    
    96   49  115 1    
    97   50   51 1    
    98   50   52 1    
    99   50  116 1    
   100   51  117 1    
   101   51  118 1    
   102   51  119 1    
   103   52   53 2    
   104   52   54 am   BACKBONE|DICT|INTERRES
   105   54   55 1    
   106   54  120 1    
   107   55   56 1    
   108   55   57 1    
   109   55  121 1    
   110   56  122 1    
   111   56  123 1    
   112   56  124 1    
   113   57   58 2    
   114   57   59 am   BACKBONE|DICT|INTERRES
   115   59   60 1    
   116   59  125 1    
   117   60   61 1    
   118   60   62 1    
   119   60  126 1    
   120   61  127 1    
   121   61  128 1    
   122   61  129 1    
   123   62   63 2    
   124   62   64 am   BACKBONE|DICT|INTERRES
   125   64   65 1    
   126   64  130 1    
   127   65   66 1    
   128   65   69 1    
   129   65  131 1    
   130   66   67 am   BACKBONE|DICT|INTERRES
   131   66   68 2    
   132   67  132 1    
   133   67  133 1    
   134   69   70 1    
   135   69  134 1    
   136   69  135 1    
   137   70   71 1    
   138   71  136 1    
   139   71  137 1    
@<TRIPOS>SUBSTRUCTURE
     1 UNK         1 GROUP             0       ****    0 ROOT    
