@<TRIPOS>MOLECULE
3R137
137   139    1
SMALL
USER_CHARGES


@<TRIPOS>ATOM
      1 CA         25.7474   -6.0933   -4.8175 C.3       0 UNK        -0.2020 
      2 C          25.7321   -5.3248   -3.5055 C.2       0 UNK         0.4855 
      3 O          24.6746   -4.8624   -3.0765 O.2       0 UNK        -0.5197 
      4 N          26.8971   -5.1688   -2.8655 N.am      1 UNK        -0.4892 
      5 CA         27.0839   -4.3983   -1.6319 C.3       1 UNK         0.0835 
      6 C6         28.4746   -4.6148   -0.9720 C.3       12 UNK        -0.0855 
      7 S7         29.8583   -4.9196   -2.1290 S.3       12 UNK        -0.2931 
      8 C8         31.1151   -3.7267   -1.5708 C.3       12 UNK         0.0378 
      9 C9         31.0029   -2.3937   -2.2951 C.ar      12 UNK        -0.0802 
     10 C10        31.2343   -2.3356   -3.6711 C.ar      12 UNK        -0.0944 
     11 C11        31.1996   -1.1150   -4.3562 C.ar      12 UNK        -0.0787 
     12 C12        30.9433    0.0540   -3.6336 C.ar      12 UNK        -0.0862 
     13 C13        30.6717    0.0112   -2.2606 C.ar      12 UNK        -0.0733 
     14 C14        30.7087   -1.2198   -1.5971 C.ar      12 UNK        -0.0832 
     15 C15        30.3499    1.2800   -1.4703 C.3       12 UNK         0.0240 
     16 S16        29.2688    2.4721   -2.3398 S.3       12 UNK        -0.2522 
     17 C17        27.8568    1.4319   -2.8414 C.3       12 UNK        -0.0967 
     18 CA         27.7658    1.3092   -4.3871 C.3       5 UNK         0.0660 
     19 N          27.4155   -0.0448   -4.8142 N.am      5 UNK        -0.4015 
     20 C          27.4532   -0.4896   -6.0785 C.2       4 UNK         0.4946 
     21 O          27.8784    0.1639   -7.0335 O.2       4 UNK        -0.5353 
     22 CA         26.8702   -1.8909   -6.3197 C.3       4 UNK         0.0277 
     23 CB         27.9298   -2.9776   -6.0720 C.3       4 UNK        -0.1981 
     24 N          25.6896   -2.1349   -5.4836 N.am      4 UNK        -0.4209 
     25 C          24.5156   -1.5032   -5.6426 C.2       3 UNK         0.4942 
     26 O          24.2837   -0.7145   -6.5570 O.2       3 UNK        -0.5208 
     27 CA         23.4360   -1.7434   -4.5754 C.3       3 UNK         0.0250 
     28 CB         22.5987   -2.9866   -4.9138 C.3       3 UNK        -0.1990 
     29 N          24.0000   -1.8542   -3.2264 N.am      3 UNK        -0.4232 
     30 C          24.5319   -0.8152   -2.5613 C.2       2 UNK         0.4993 
     31 O          24.5624    0.3296   -3.0083 O.2       2 UNK        -0.5286 
     32 CA         25.1829   -1.0835   -1.1931 C.3       2 UNK         0.0209 
     33 CB         24.1669   -0.8566   -0.0629 C.3       2 UNK        -0.1931 
     34 N          25.7647   -2.4207   -1.0656 N.am      2 UNK        -0.4546 
     35 C          26.7344   -2.9122   -1.8492 C.2       1 UNK         0.5154 
     36 O          27.2797   -2.2638   -2.7457 O.2       1 UNK        -0.5181 
     37 C          26.8289    2.3686   -5.0031 C.2       5 UNK         0.5014 
     38 O          27.3149    3.3341   -5.5922 O.2       5 UNK        -0.5248 
     39 N          25.5089    2.1514   -4.8977 N.am      6 UNK        -0.4434 
     40 CA         24.4632    3.0073   -5.4688 C.3       6 UNK         0.0363 
     41 CB         23.0840    2.5250   -4.9930 C.3       6 UNK        -0.1936 
     42 C          24.5059    3.0833   -7.0045 C.2       6 UNK         0.5081 
     43 O          24.2828    4.1581   -7.5621 O.2       6 UNK        -0.5248 
     44 N          24.8222    1.9575   -7.6594 N.am      7 UNK        -0.4718 
     45 CA         25.0537    1.8709   -9.1048 C.3       7 UNK         0.0273 
     46 CB         25.0226    0.3935   -9.5294 C.3       7 UNK        -0.1935 
     47 C          26.3728    2.5245   -9.5607 C.2       7 UNK         0.5018 
     48 O          26.5354    2.7510  -10.7605 O.2       7 UNK        -0.5186 
     49 N          27.2830    2.7967   -8.6121 N.am      8 UNK        -0.4240 
     50 CA         28.6377    3.3271   -8.7895 C.3       8 UNK         0.0235 
     51 CB         28.5973    4.7841   -9.2978 C.3       8 UNK        -0.2000 
     52 C          29.5136    2.4013   -9.6531 C.2       8 UNK         0.4941 
     53 O          30.1862    2.8689  -10.5755 O.2       8 UNK        -0.5273 
     54 N          29.4691    1.0959   -9.3507 N.am      9 UNK        -0.4262 
     55 CA         30.2486    0.0625  -10.0338 C.3       9 UNK         0.0264 
     56 CB         29.7347   -1.3195   -9.6004 C.3       9 UNK        -0.1955 
     57 C          31.7570    0.2009   -9.7594 C.2       9 UNK         0.5031 
     58 O          32.1524    0.6329   -8.6731 O.2       9 UNK        -0.5390 
     59 N          32.5790   -0.1989  -10.7378 N.am      10 UNK        -0.4204 
     60 CA         34.0441   -0.1618  -10.6789 C.3       10 UNK         0.0237 
     61 CB         34.5995   -0.0951  -12.1146 C.3       10 UNK        -0.1985 
     62 C          34.6131   -1.3482   -9.8753 C.2       10 UNK         0.4970 
     63 O          35.3431   -2.1756  -10.4250 O.2       10 UNK        -0.4914 
     64 N          34.2332   -1.4262   -8.5965 N.am      11 UNK        -0.4285 
     65 CA         34.6330   -2.4757   -7.6490 C.3       11 UNK         0.1007 
     66 C          36.1482   -2.4397   -7.3099 C.2       11 UNK         0.5703 
     67 N          36.7505   -3.5900   -7.0399 N.am      11 UNK        -0.7361 
     68 O          36.7708   -1.3803   -7.2501 O.2       11 UNK        -0.4986 
     69 C69        33.7784   -2.4343   -6.3557 C.3       12 UNK        -0.0947 
     70 S70        31.9897   -2.5190   -6.7056 S.3       12 UNK        -0.2240 
     71 C71        31.3925   -1.0071   -5.8703 C.3       12 UNK         0.0194 
     72 H72        26.7506   -6.4264   -5.0828 H         1 UNK         0.0906 
     73 H73        25.1059   -6.9710   -4.7442 H         1 UNK         0.0906 
     74 H74        25.3735   -5.4646   -5.6252 H         1 UNK         0.0906 
     75 H75        27.7525   -5.5328   -3.2636 H         1 UNK         0.3140 
     76 H76        26.3497   -4.7931   -0.9255 H         1 UNK         0.1085 
     77 H77        28.7204   -3.7915   -0.2984 H         1 UNK         0.0836 
     78 H78        28.4204   -5.4948   -0.3290 H         1 UNK         0.0836 
     79 H79        32.1011   -4.1466   -1.7746 H         1 UNK         0.0731 
     80 H80        31.0621   -3.6004   -0.4884 H         1 UNK         0.0731 
     81 H81        31.4356   -3.2585   -4.1947 H         1 UNK         0.1312 
     82 H82        30.9313    1.0030   -4.1510 H         1 UNK         0.1406 
     83 H83        30.5207   -1.2634   -0.5329 H         1 UNK         0.1631 
     84 H84        31.2859    1.7790   -1.2168 H         1 UNK         0.0717 
     85 H85        29.8715    1.0241   -0.5236 H         1 UNK         0.0717 
     86 H86        27.9753    0.4483   -2.3846 H         1 UNK         0.0934 
     87 H87        26.9422    1.8375   -2.4038 H         1 UNK         0.0934 
     88 H88        28.7527    1.4931   -4.8150 H         1 UNK         0.0739 
     89 H89        27.1298   -0.6943   -4.0894 H         1 UNK         0.3093 
     90 H90        26.5631   -1.9477   -7.3661 H         1 UNK         0.0818 
     91 H91        28.3036   -2.9631   -5.0476 H         1 UNK         0.0819 
     92 H92        27.5342   -3.9728   -6.2721 H         1 UNK         0.0819 
     93 H93        28.7897   -2.8361   -6.7272 H         1 UNK         0.0819 
     94 H94        25.8186   -2.7190   -4.6694 H         1 UNK         0.3041 
     95 H95        22.7653   -0.8814   -4.5849 H         1 UNK         0.0784 
     96 H96        22.0851   -2.8568   -5.8673 H         1 UNK         0.0793 
     97 H97        23.2118   -3.8833   -4.9996 H         1 UNK         0.0793 
     98 H98        21.8356   -3.1713   -4.1576 H         1 UNK         0.0793 
     99 H99        24.0501   -2.7838   -2.8242 H         1 UNK         0.3024 
    100 H100       25.9922   -0.3604   -1.0740 H         1 UNK         0.1171 
    101 H101       23.7353    0.1439   -0.1219 H         1 UNK         0.0786 
    102 H102       24.6354   -0.9468    0.9174 H         1 UNK         0.0786 
    103 H103       23.3429   -1.5699   -0.1099 H         1 UNK         0.0786 
    104 H104       25.3502   -3.0231   -0.3686 H         1 UNK         0.2977 
    105 H105       25.1864    1.3647   -4.3342 H         1 UNK         0.3127 
    106 H106       24.6221    4.0173   -5.0854 H         1 UNK         0.0770 
    107 H107       22.8767    1.5082   -5.3278 H         1 UNK         0.0814 
    108 H108       22.2906    3.1653   -5.3808 H         1 UNK         0.0814 
    109 H109       23.0111    2.5408   -3.9054 H         1 UNK         0.0814 
    110 H110       24.9048    1.0912   -7.1343 H         1 UNK         0.2983 
    111 H111       24.2402    2.3925   -9.6136 H         1 UNK         0.0947 
    112 H112       25.1581    0.2911  -10.6070 H         1 UNK         0.0806 
    113 H113       24.0698   -0.0723   -9.2776 H         1 UNK         0.0806 
    114 H114       25.8145   -0.1791   -9.0450 H         1 UNK         0.0806 
    115 H115       27.0419    2.5611   -7.6568 H         1 UNK         0.3000 
    116 H116       29.0928    3.3364   -7.7978 H         1 UNK         0.0850 
    117 H117       29.5982    5.2165   -9.3206 H         1 UNK         0.0810 
    118 H118       27.9877    5.4120   -8.6478 H         1 UNK         0.0810 
    119 H119       28.1913    4.8515  -10.3075 H         1 UNK         0.0810 
    120 H120       28.9059    0.7965   -8.5575 H         1 UNK         0.3040 
    121 H121       30.0803    0.1734  -11.1071 H         1 UNK         0.0766 
    122 H122       28.6855   -1.4525   -9.8647 H         1 UNK         0.0812 
    123 H123       29.8244   -1.4597   -8.5241 H         1 UNK         0.0812 
    124 H124       30.2965   -2.1208  -10.0820 H         1 UNK         0.0812 
    125 H125       32.1764   -0.5809  -11.5819 H         1 UNK         0.3205 
    126 H126       34.3529    0.7512  -10.1647 H         1 UNK         0.0754 
    127 H127       35.6887   -0.0337  -12.1098 H         1 UNK         0.0769 
    128 H128       34.2308    0.7853  -12.6415 H         1 UNK         0.0769 
    129 H129       34.3245   -0.9751  -12.6977 H         1 UNK         0.0769 
    130 H130       33.5993   -0.7160   -8.2460 H         1 UNK         0.2981 
    131 H131       34.4345   -3.4290   -8.1433 H         1 UNK         0.0541 
    132 H132       37.7304   -3.5859   -6.8032 H         1 UNK         0.3459 
    133 H133       36.2473   -4.4631   -7.0735 H         1 UNK         0.3459 
    134 H134       34.0270   -3.2763   -5.7073 H         1 UNK         0.0612 
    135 H135       33.9998   -1.5335   -5.7802 H         1 UNK         0.0612 
    136 H136       30.4350   -0.7350   -6.3129 H         1 UNK         0.0624 
    137 H137       32.0723   -0.1842   -6.0947 H         1 UNK         0.0624 
@<TRIPOS>BOND
     1    1    2 1    
     2    1   72 1    
     3    1   73 1    
     4    1   74 1    
     5    2    3 2    
     6    2    4 am   BACKBONE|DICT|INTERRES
     7    4    5 1    
     8    4   75 1    
     9    5    6 1    
    10    5   35 1    
    11    5   76 1    
    12    6    7 1    
    13    6   77 1    
    14    6   78 1    
    15    7    8 1    
    16    8    9 1    
    17    8   79 1    
    18    8   80 1    
    19    9   10 ar   
    20    9   14 ar   
    21   10   11 ar   
    22   10   81 1    
    23   11   12 ar   
    24   11   71 1    
    25   12   13 ar   
    26   12   82 1    
    27   13   14 ar   
    28   13   15 1    
    29   14   83 1    
    30   15   16 1    
    31   15   84 1    
    32   15   85 1    
    33   16   17 1    
    34   17   18 1    
    35   17   86 1    
    36   17   87 1    
    37   18   19 1    
    38   18   37 1    
    39   18   88 1    
    40   19   20 am   BACKBONE|DICT|INTERRES
    41   19   89 1    
    42   20   21 2    
    43   20   22 1    
    44   22   23 1    
    45   22   24 1    
    46   22   90 1    
    47   23   91 1    
    48   23   92 1    
    49   23   93 1    
    50   24   25 am   BACKBONE|DICT|INTERRES
    51   24   94 1    
    52   25   26 2    
    53   25   27 1    
    54   27   28 1    
    55   27   29 1    
    56   27   95 1    
    57   28   96 1    
    58   28   97 1    
    59   28   98 1    
    60   29   30 am   BACKBONE|DICT|INTERRES
    61   29   99 1    
    62   30   31 2    
    63   30   32 1    
    64   32   33 1    
    65   32   34 1    
    66   32  100 1    
    67   33  101 1    
    68   33  102 1    
    69   33  103 1    
    70   34   35 am   BACKBONE|DICT|INTERRES
    71   34  104 1    
    72   35   36 2    
    73   37   38 2    
    74   37   39 am   BACKBONE|DICT|INTERRES
    75   39   40 1    
    76   39  105 1    
    77   40   41 1    
    78   40   42 1    
    79   40  106 1    
    80   41  107 1    
    81   41  108 1    
    82   41  109 1    
    83   42   43 2    
    84   42   44 am   BACKBONE|DICT|INTERRES
    85   44   45 1    
    86   44  110 1    
    87   45   46 1    
    88   45   47 1    
    89   45  111 1    
    90   46  112 1    
    91   46  113 1    
    92   46  114 1    
    93   47   48 2    
    94   47   49 am   BACKBONE|DICT|INTERRES
    95   49   50 1    
    96   49  115 1    
    97   50   51 1    
    98   50   52 1    
    99   50  116 1    
   100   51  117 1    
   101   51  118 1    
   102   51  119 1    
   103   52   53 2    
   104   52   54 am   BACKBONE|DICT|INTERRES
   105   54   55 1    
   106   54  120 1    
   107   55   56 1    
   108   55   57 1    
   109   55  121 1    
   110   56  122 1    
   111   56  123 1    
   112   56  124 1    
   113   57   58 2    
   114   57   59 am   BACKBONE|DICT|INTERRES
   115   59   60 1    
   116   59  125 1    
   117   60   61 1    
   118   60   62 1    
   119   60  126 1    
   120   61  127 1    
   121   61  128 1    
   122   61  129 1    
   123   62   63 2    
   124   62   64 am   BACKBONE|DICT|INTERRES
   125   64   65 1    
   126   64  130 1    
   127   65   66 1    
   128   65   69 1    
   129   65  131 1    
   130   66   67 am   BACKBONE|DICT|INTERRES
   131   66   68 2    
   132   67  132 1    
   133   67  133 1    
   134   69   70 1    
   135   69  134 1    
   136   69  135 1    
   137   70   71 1    
   138   71  136 1    
   139   71  137 1    
@<TRIPOS>SUBSTRUCTURE
     1 UNK         1 GROUP             0       ****    0 ROOT    
