@<TRIPOS>MOLECULE
3R137
137   139    1
SMALL
USER_CHARGES


@<TRIPOS>ATOM
      1 CA         29.4921   -1.6548    0.2274 C.3       0 UNK        -0.2020 
      2 C          28.5792   -2.8203    0.6019 C.2       0 UNK         0.4855 
      3 O          28.4294   -3.1128    1.7862 O.2       0 UNK        -0.5197 
      4 N          27.9444   -3.5116   -0.3560 N.am      1 UNK        -0.4892 
      5 CA         28.0125   -3.2714   -1.8052 C.3       1 UNK         0.0835 
      6 C6         27.8902   -4.5815   -2.6213 C.3       12 UNK        -0.0855 
      7 S7         29.3781   -5.6243   -2.4461 S.3       12 UNK        -0.2931 
      8 C8         30.2955   -5.2331   -3.9753 C.3       12 UNK         0.0378 
      9 C9         31.0346   -3.9034   -3.8832 C.ar      12 UNK        -0.0802 
     10 C10        32.3575   -3.8633   -3.4337 C.ar      12 UNK        -0.0944 
     11 C11        33.0506   -2.6501   -3.3714 C.ar      12 UNK        -0.0787 
     12 C12        32.4003   -1.4630   -3.7247 C.ar      12 UNK        -0.0862 
     13 C13        31.0795   -1.4910   -4.1787 C.ar      12 UNK        -0.0733 
     14 C14        30.4110   -2.7144   -4.2719 C.ar      12 UNK        -0.0832 
     15 C15        30.3700   -0.2120   -4.5919 C.3       12 UNK         0.0240 
     16 S16        29.3260    0.4210   -3.2403 S.3       12 UNK        -0.2522 
     17 C17        28.2062    1.6424   -4.0217 C.3       12 UNK        -0.0967 
     18 CA         27.7427    1.3456   -5.4716 C.3       5 UNK         0.0660 
     19 N          27.1526    0.0105   -5.6325 N.am      5 UNK        -0.4015 
     20 C          26.8426   -0.5386   -6.8167 C.2       4 UNK         0.4946 
     21 O          27.0663    0.0075   -7.8968 O.2       4 UNK        -0.5353 
     22 CA         26.1075   -1.8870   -6.8037 C.3       4 UNK         0.0277 
     23 CB         27.0851   -3.0691   -6.7163 C.3       4 UNK        -0.1981 
     24 N          25.1445   -1.9621   -5.7059 N.am      4 UNK        -0.4209 
     25 C          23.9233   -1.4125   -5.7322 C.2       3 UNK         0.4942 
     26 O          23.4524   -0.8378   -6.7135 O.2       3 UNK        -0.5208 
     27 CA         23.0920   -1.4999   -4.4391 C.3       3 UNK         0.0250 
     28 CB         22.2725   -2.8000   -4.4133 C.3       3 UNK        -0.1990 
     29 N          23.8953   -1.4047   -3.2153 N.am      3 UNK        -0.4232 
     30 C          24.5845   -0.3156   -2.8491 C.2       2 UNK         0.4993 
     31 O          24.6248    0.7230   -3.5078 O.2       2 UNK        -0.5286 
     32 CA         25.4112   -0.4117   -1.5562 C.3       2 UNK         0.0209 
     33 CB         24.5154   -0.1962   -0.3260 C.3       2 UNK        -0.1931 
     34 N          26.1969   -1.6422   -1.3811 N.am      2 UNK        -0.4546 
     35 C          27.0081   -2.2054   -2.2906 C.2       1 UNK         0.5154 
     36 O          27.0145   -1.8930   -3.4811 O.2       1 UNK        -0.5181 
     37 C          26.7903    2.4465   -5.9842 C.2       5 UNK         0.5014 
     38 O          27.2401    3.3509   -6.6881 O.2       5 UNK        -0.5248 
     39 N          25.4868    2.3190   -5.6893 N.am      6 UNK        -0.4434 
     40 CA         24.4175    3.1751   -6.2164 C.3       6 UNK         0.0363 
     41 CB         23.0948    2.8284   -5.5150 C.3       6 UNK        -0.1936 
     42 C          24.2505    3.0864   -7.7459 C.2       6 UNK         0.5081 
     43 O          23.8508    4.0716   -8.3661 O.2       6 UNK        -0.5248 
     44 N          24.5869    1.9285   -8.3304 N.am      7 UNK        -0.4718 
     45 CA         24.6298    1.6928   -9.7770 C.3       7 UNK         0.0273 
     46 CB         24.3395    0.2059  -10.0474 C.3       7 UNK        -0.1935 
     47 C          25.9657    2.1221  -10.4204 C.2       7 UNK         0.5018 
     48 O          26.1325    1.9279  -11.6252 O.2       7 UNK        -0.5186 
     49 N          26.8861    2.6856   -9.6217 N.am      8 UNK        -0.4240 
     50 CA         28.2269    3.1627   -9.9778 C.3       8 UNK         0.0235 
     51 CB         28.1665    4.2814  -11.0405 C.3       8 UNK        -0.2000 
     52 C          29.2235    2.0454  -10.3424 C.2       8 UNK         0.4941 
     53 O          30.2516    2.3340  -10.9593 O.2       8 UNK        -0.5273 
     54 N          28.9596    0.8015   -9.9171 N.am      9 UNK        -0.4262 
     55 CA         29.8879   -0.3241  -10.0323 C.3       9 UNK         0.0264 
     56 CB         29.0921   -1.6359  -10.1406 C.3       9 UNK        -0.1955 
     57 C          30.8486   -0.2985   -8.8326 C.2       9 UNK         0.5031 
     58 O          30.7106   -1.0955   -7.9027 O.2       9 UNK        -0.5390 
     59 N          31.7715    0.6711   -8.8558 N.am      10 UNK        -0.4204 
     60 CA         32.7131    1.0071   -7.7868 C.3       10 UNK         0.0237 
     61 CB         33.2954    2.4051   -8.0676 C.3       10 UNK        -0.1985 
     62 C          33.8089   -0.0569   -7.5799 C.2       10 UNK         0.4970 
     63 O          34.9698    0.1809   -7.9179 O.2       10 UNK        -0.4914 
     64 N          33.4145   -1.2048   -7.0180 N.am      11 UNK        -0.4285 
     65 CA         34.2799   -2.3359   -6.6437 C.3       11 UNK         0.1007 
     66 C          34.8657   -3.1369   -7.8471 C.2       11 UNK         0.5703 
     67 N          34.3241   -3.0005   -9.0522 N.am      11 UNK        -0.7361 
     68 O          35.8038   -3.9149   -7.6906 O.2       11 UNK        -0.4986 
     69 C69        35.3435   -1.9339   -5.5729 C.3       12 UNK        -0.0947 
     70 S70        35.5973   -3.2171   -4.2992 S.3       12 UNK        -0.2240 
     71 C71        34.5136   -2.6305   -2.9549 C.3       12 UNK         0.0194 
     72 H72        28.9659   -0.9153   -0.3752 H         1 UNK         0.0906 
     73 H73        29.8541   -1.1503    1.1230 H         1 UNK         0.0906 
     74 H74        30.3616   -2.0070   -0.3276 H         1 UNK         0.0906 
     75 H75        27.3649   -4.2914   -0.0775 H         1 UNK         0.3140 
     76 H76        28.9887   -2.8466   -2.0343 H         1 UNK         0.1085 
     77 H77        27.0195   -5.1545   -2.2979 H         1 UNK         0.0836 
     78 H78        27.7331   -4.3860   -3.6828 H         1 UNK         0.0836 
     79 H79        31.0113   -6.0351   -4.1622 H         1 UNK         0.0731 
     80 H80        29.6185   -5.2354   -4.8311 H         1 UNK         0.0731 
     81 H81        32.8582   -4.7801   -3.1532 H         1 UNK         0.1312 
     82 H82        32.9289   -0.5212   -3.6697 H         1 UNK         0.1406 
     83 H83        29.3931   -2.7310   -4.6287 H         1 UNK         0.1631 
     84 H84        29.7799   -0.4292   -5.4797 H         1 UNK         0.0717 
     85 H85        31.0891    0.5573   -4.8723 H         1 UNK         0.0717 
     86 H86        27.3390    1.7431   -3.3664 H         1 UNK         0.0934 
     87 H87        28.7125    2.6092   -3.9893 H         1 UNK         0.0934 
     88 H88        28.6200    1.3900   -6.1200 H         1 UNK         0.0739 
     89 H89        26.9920   -0.5276   -4.7844 H         1 UNK         0.3093 
     90 H90        25.5707   -1.9726   -7.7509 H         1 UNK         0.0818 
     91 H91        27.5439   -3.1411   -5.7342 H         1 UNK         0.0819 
     92 H92        26.5755   -4.0128   -6.9107 H         1 UNK         0.0819 
     93 H93        27.8911   -2.9807   -7.4441 H         1 UNK         0.0819 
     94 H94        25.4911   -2.3305   -4.8282 H         1 UNK         0.3041 
     95 H95        22.3955   -0.6585   -4.4439 H         1 UNK         0.0784 
     96 H96        22.9132   -3.6822   -4.3797 H         1 UNK         0.0793 
     97 H97        21.6480   -2.8845   -5.3039 H         1 UNK         0.0793 
     98 H98        21.6077   -2.8333   -3.5499 H         1 UNK         0.0793 
     99 H99        23.9328   -2.2200   -2.6207 H         1 UNK         0.3024 
    100 H100       26.1310    0.4088   -1.5907 H         1 UNK         0.1171 
    101 H101       25.1070   -0.1030    0.5850 H         1 UNK         0.0786 
    102 H102       23.9302    0.7197   -0.4230 H         1 UNK         0.0786 
    103 H103       23.8131   -1.0191   -0.1877 H         1 UNK         0.0786 
    104 H104       26.2506   -2.0034   -0.4393 H         1 UNK         0.2977 
    105 H105       25.1994    1.5897   -5.0375 H         1 UNK         0.3127 
    106 H106       24.6725    4.2090   -5.9749 H         1 UNK         0.0770 
    107 H107       22.8051    1.7920   -5.6936 H         1 UNK         0.0814 
    108 H108       22.2827    3.4622   -5.8739 H         1 UNK         0.0814 
    109 H109       23.1673    2.9741   -4.4371 H         1 UNK         0.0814 
    110 H110       24.9053    1.1669   -7.7458 H         1 UNK         0.2983 
    111 H111       23.8429    2.2806  -10.2546 H         1 UNK         0.0947 
    112 H112       24.2522    0.0127  -11.1173 H         1 UNK         0.0806 
    113 H113       23.4034   -0.1076   -9.5848 H         1 UNK         0.0806 
    114 H114       25.1327   -0.4371   -9.6669 H         1 UNK         0.0806 
    115 H115       26.6585    2.7733   -8.6375 H         1 UNK         0.3000 
    116 H116       28.6232    3.6111   -9.0657 H         1 UNK         0.0850 
    117 H117       29.1415    4.7535  -11.1671 H         1 UNK         0.0810 
    118 H118       27.4650    5.0646  -10.7533 H         1 UNK         0.0810 
    119 H119       27.8649    3.8996  -12.0161 H         1 UNK         0.0810 
    120 H120       28.1398    0.6414   -9.3340 H         1 UNK         0.3040 
    121 H121       30.4826   -0.2271  -10.9433 H         1 UNK         0.0766 
    122 H122       28.4320   -1.7789   -9.2879 H         1 UNK         0.0812 
    123 H123       29.7602   -2.4968  -10.1864 H         1 UNK         0.0812 
    124 H124       28.4777   -1.6505  -11.0408 H         1 UNK         0.0812 
    125 H125       31.7705    1.2854   -9.6615 H         1 UNK         0.3205 
    126 H126       32.1501    1.0736   -6.8553 H         1 UNK         0.0754 
    127 H127       32.5103    3.1604   -8.1121 H         1 UNK         0.0769 
    128 H128       33.8420    2.4342   -9.0113 H         1 UNK         0.0769 
    129 H129       33.9874    2.7063   -7.2798 H         1 UNK         0.0769 
    130 H130       32.4167   -1.3459   -6.8908 H         1 UNK         0.2981 
    131 H131       33.5868   -3.0367   -6.1781 H         1 UNK         0.0541 
    132 H132       33.5471   -2.3761   -9.1930 H         1 UNK         0.3459 
    133 H133       34.7000   -3.5268   -9.8251 H         1 UNK         0.3459 
    134 H134       35.0508   -1.0163   -5.0609 H         1 UNK         0.0612 
    135 H135       36.3029   -1.7041   -6.0395 H         1 UNK         0.0612 
    136 H136       34.8201   -1.6284   -2.6509 H         1 UNK         0.0624 
    137 H137       34.6524   -3.2717   -2.0834 H         1 UNK         0.0624 
@<TRIPOS>BOND
     1    1    2 1    
     2    1   72 1    
     3    1   73 1    
     4    1   74 1    
     5    2    3 2    
     6    2    4 am   BACKBONE|DICT|INTERRES
     7    4    5 1    
     8    4   75 1    
     9    5    6 1    
    10    5   35 1    
    11    5   76 1    
    12    6    7 1    
    13    6   77 1    
    14    6   78 1    
    15    7    8 1    
    16    8    9 1    
    17    8   79 1    
    18    8   80 1    
    19    9   10 ar   
    20    9   14 ar   
    21   10   11 ar   
    22   10   81 1    
    23   11   12 ar   
    24   11   71 1    
    25   12   13 ar   
    26   12   82 1    
    27   13   14 ar   
    28   13   15 1    
    29   14   83 1    
    30   15   16 1    
    31   15   84 1    
    32   15   85 1    
    33   16   17 1    
    34   17   18 1    
    35   17   86 1    
    36   17   87 1    
    37   18   19 1    
    38   18   37 1    
    39   18   88 1    
    40   19   20 am   BACKBONE|DICT|INTERRES
    41   19   89 1    
    42   20   21 2    
    43   20   22 1    
    44   22   23 1    
    45   22   24 1    
    46   22   90 1    
    47   23   91 1    
    48   23   92 1    
    49   23   93 1    
    50   24   25 am   BACKBONE|DICT|INTERRES
    51   24   94 1    
    52   25   26 2    
    53   25   27 1    
    54   27   28 1    
    55   27   29 1    
    56   27   95 1    
    57   28   96 1    
    58   28   97 1    
    59   28   98 1    
    60   29   30 am   BACKBONE|DICT|INTERRES
    61   29   99 1    
    62   30   31 2    
    63   30   32 1    
    64   32   33 1    
    65   32   34 1    
    66   32  100 1    
    67   33  101 1    
    68   33  102 1    
    69   33  103 1    
    70   34   35 am   BACKBONE|DICT|INTERRES
    71   34  104 1    
    72   35   36 2    
    73   37   38 2    
    74   37   39 am   BACKBONE|DICT|INTERRES
    75   39   40 1    
    76   39  105 1    
    77   40   41 1    
    78   40   42 1    
    79   40  106 1    
    80   41  107 1    
    81   41  108 1    
    82   41  109 1    
    83   42   43 2    
    84   42   44 am   BACKBONE|DICT|INTERRES
    85   44   45 1    
    86   44  110 1    
    87   45   46 1    
    88   45   47 1    
    89   45  111 1    
    90   46  112 1    
    91   46  113 1    
    92   46  114 1    
    93   47   48 2    
    94   47   49 am   BACKBONE|DICT|INTERRES
    95   49   50 1    
    96   49  115 1    
    97   50   51 1    
    98   50   52 1    
    99   50  116 1    
   100   51  117 1    
   101   51  118 1    
   102   51  119 1    
   103   52   53 2    
   104   52   54 am   BACKBONE|DICT|INTERRES
   105   54   55 1    
   106   54  120 1    
   107   55   56 1    
   108   55   57 1    
   109   55  121 1    
   110   56  122 1    
   111   56  123 1    
   112   56  124 1    
   113   57   58 2    
   114   57   59 am   BACKBONE|DICT|INTERRES
   115   59   60 1    
   116   59  125 1    
   117   60   61 1    
   118   60   62 1    
   119   60  126 1    
   120   61  127 1    
   121   61  128 1    
   122   61  129 1    
   123   62   63 2    
   124   62   64 am   BACKBONE|DICT|INTERRES
   125   64   65 1    
   126   64  130 1    
   127   65   66 1    
   128   65   69 1    
   129   65  131 1    
   130   66   67 am   BACKBONE|DICT|INTERRES
   131   66   68 2    
   132   67  132 1    
   133   67  133 1    
   134   69   70 1    
   135   69  134 1    
   136   69  135 1    
   137   70   71 1    
   138   71  136 1    
   139   71  137 1    
@<TRIPOS>SUBSTRUCTURE
     1 UNK         1 GROUP             0       ****    0 ROOT    
