@<TRIPOS>MOLECULE
3R137
137   139    1
SMALL
USER_CHARGES


@<TRIPOS>ATOM
      1 CA         25.9400   -5.3712   -3.0864 C.3       0 UNK        -0.2020 
      2 C          26.1612   -4.2382   -2.0964 C.2       0 UNK         0.4855 
      3 O          25.2485   -3.8989   -1.3432 O.2       0 UNK        -0.5197 
      4 N          27.3662   -3.6539   -2.0858 N.am      1 UNK        -0.4892 
      5 CA         27.7230   -2.5028   -1.2519 C.3       1 UNK         0.0835 
      6 C6         29.2523   -2.2709   -1.2203 C.3       12 UNK        -0.0855 
      7 S7         30.1426   -3.4458   -0.1350 S.3       12 UNK        -0.2931 
      8 C8         30.4473   -4.9253   -1.1675 C.3       12 UNK         0.0378 
      9 C9         30.8920   -4.6047   -2.5888 C.ar      12 UNK        -0.0802 
     10 C10        31.9860   -3.7648   -2.8264 C.ar      12 UNK        -0.0944 
     11 C11        32.3303   -3.3947   -4.1302 C.ar      12 UNK        -0.0787 
     12 C12        31.5787   -3.8932   -5.2005 C.ar      12 UNK        -0.0862 
     13 C13        30.5006   -4.7542   -4.9773 C.ar      12 UNK        -0.0733 
     14 C14        30.1741   -5.1214   -3.6706 C.ar      12 UNK        -0.0832 
     15 C15        29.6482   -5.2349   -6.1445 C.3       12 UNK         0.0240 
     16 S16        27.9658   -4.5300   -6.0885 S.3       12 UNK        -0.2522 
     17 C17        28.3104   -2.7431   -5.9600 C.3       12 UNK        -0.0967 
     18 CA         27.5480   -1.9042   -7.0061 C.3       5 UNK         0.0660 
     19 N          26.0925   -2.0268   -6.8738 N.am      5 UNK        -0.4015 
     20 C          25.2062   -1.5176   -7.7404 C.2       4 UNK         0.4946 
     21 O          25.5208   -0.9004   -8.7557 O.2       4 UNK        -0.5353 
     22 CA         23.7145   -1.6882   -7.4080 C.3       4 UNK         0.0277 
     23 CB         23.2028   -3.0436   -7.9214 C.3       4 UNK        -0.1981 
     24 N          23.3878   -1.5467   -5.9851 N.am      4 UNK        -0.4209 
     25 C          23.6737   -0.4831   -5.2202 C.2       3 UNK         0.4942 
     26 O          24.3112    0.4934   -5.6210 O.2       3 UNK        -0.5208 
     27 CA         23.1899   -0.5110   -3.7625 C.3       3 UNK         0.0250 
     28 CB         22.6004   -1.8624   -3.3010 C.3       3 UNK        -0.1990 
     29 N          24.3179   -0.1503   -2.9154 N.am      3 UNK        -0.4232 
     30 C          24.2728    0.4898   -1.7462 C.2       2 UNK         0.4993 
     31 O          23.2269    0.8520   -1.2034 O.2       2 UNK        -0.5286 
     32 CA         25.6365    0.7507   -1.0702 C.3       2 UNK         0.0209 
     33 CB         25.5011    1.5162    0.2598 C.3       2 UNK        -0.1931 
     34 N          26.4008   -0.4800   -0.8302 N.am      2 UNK        -0.4546 
     35 C          26.9965   -1.2411   -1.7596 C.2       1 UNK         0.5154 
     36 O          26.9930   -0.9794   -2.9679 O.2       1 UNK        -0.5181 
     37 C          28.0123   -0.4383   -6.9297 C.2       5 UNK         0.5014 
     38 O          28.8049   -0.0053   -7.7711 O.2       5 UNK        -0.5248 
     39 N          27.5061    0.2964   -5.9286 N.am      6 UNK        -0.4434 
     40 CA         27.7818    1.7179   -5.7201 C.3       6 UNK         0.0363 
     41 CB         27.2462    2.1632   -4.3525 C.3       6 UNK        -0.1936 
     42 C          27.2288    2.6041   -6.8450 C.2       6 UNK         0.5081 
     43 O          27.8874    3.5701   -7.2295 O.2       6 UNK        -0.5248 
     44 N          26.0497    2.2440   -7.3697 N.am      7 UNK        -0.4718 
     45 CA         25.4456    2.8789   -8.5415 C.3       7 UNK         0.0273 
     46 CB         23.9904    2.4064   -8.6893 C.3       7 UNK        -0.1935 
     47 C          26.2432    2.6175   -9.8323 C.2       7 UNK         0.5018 
     48 O          26.3957    3.5352  -10.6395 O.2       7 UNK        -0.5186 
     49 N          26.7297    1.3798  -10.0042 N.am      8 UNK        -0.4240 
     50 CA         27.5010    0.9411  -11.1662 C.3       8 UNK         0.0235 
     51 CB         27.5668   -0.5951  -11.2068 C.3       8 UNK        -0.2000 
     52 C          28.9115    1.5451  -11.2300 C.2       8 UNK         0.4941 
     53 O          29.2682    2.1029  -12.2696 O.2       8 UNK        -0.5273 
     54 N          29.6991    1.4002  -10.1532 N.am      9 UNK        -0.4262 
     55 CA         31.1176    1.7846  -10.1505 C.3       9 UNK         0.0264 
     56 CB         31.9531    0.7222  -10.8948 C.3       9 UNK        -0.1955 
     57 C          31.7261    2.0409   -8.7646 C.2       9 UNK         0.5031 
     58 O          32.7360    2.7440   -8.6983 O.2       9 UNK        -0.5390 
     59 N          31.1764    1.4412   -7.6960 N.am      10 UNK        -0.4204 
     60 CA         31.6714    1.5059   -6.3087 C.3       10 UNK         0.0237 
     61 CB         31.5086    2.9364   -5.7446 C.3       10 UNK        -0.1985 
     62 C          33.1158    0.9849   -6.1258 C.2       10 UNK         0.4970 
     63 O          33.7947    1.4059   -5.1878 O.2       10 UNK        -0.4914 
     64 N          33.5642    0.1000   -7.0293 N.am      11 UNK        -0.4285 
     65 CA         34.9567   -0.3654   -7.1746 C.3       11 UNK         0.1007 
     66 C          35.9687    0.7555   -7.5755 C.2       11 UNK         0.5703 
     67 N          35.5300    1.8995   -8.0906 N.am      11 UNK        -0.7361 
     68 O          37.1788    0.5770   -7.4551 O.2       11 UNK        -0.4986 
     69 C69        35.4499   -1.2355   -5.9786 C.3       12 UNK        -0.0947 
     70 S70        34.4979   -2.7800   -5.8001 S.3       12 UNK        -0.2240 
     71 C71        33.4539   -2.3883   -4.3588 C.3       12 UNK         0.0194 
     72 H72        25.4358   -6.2049   -2.5984 H         1 UNK         0.0906 
     73 H73        25.3158   -5.0313   -3.9123 H         1 UNK         0.0906 
     74 H74        26.8778   -5.7427   -3.4971 H         1 UNK         0.0906 
     75 H75        28.0695   -3.9405   -2.7500 H         1 UNK         0.3140 
     76 H76        27.3817   -2.7063   -0.2342 H         1 UNK         0.1085 
     77 H77        29.6692   -2.2665   -2.2282 H         1 UNK         0.0836 
     78 H78        29.4742   -1.2798   -0.8184 H         1 UNK         0.0836 
     79 H79        31.2120   -5.5374   -0.6876 H         1 UNK         0.0731 
     80 H80        29.5371   -5.5271   -1.1742 H         1 UNK         0.0731 
     81 H81        32.5376   -3.3608   -1.9882 H         1 UNK         0.1312 
     82 H82        31.8152   -3.5875   -6.2103 H         1 UNK         0.1406 
     83 H83        29.3348   -5.7817   -3.5010 H         1 UNK         0.1631 
     84 H84        29.5806   -6.3234   -6.1215 H         1 UNK         0.0717 
     85 H85        30.1101   -4.9745   -7.0982 H         1 UNK         0.0717 
     86 H86        28.0695   -2.4235   -4.9446 H         1 UNK         0.0934 
     87 H87        29.3802   -2.5720   -6.0811 H         1 UNK         0.0934 
     88 H88        27.8162   -2.2739   -7.9983 H         1 UNK         0.0739 
     89 H89        25.7524   -2.5372   -6.0730 H         1 UNK         0.3093 
     90 H90        23.1760   -0.9004   -7.9386 H         1 UNK         0.0818 
     91 H91        22.1230   -3.1329   -7.8008 H         1 UNK         0.0819 
     92 H92        23.4176   -3.1638   -8.9844 H         1 UNK         0.0819 
     93 H93        23.6706   -3.8787   -7.3985 H         1 UNK         0.0819 
     94 H94        22.8633   -2.3014   -5.5668 H         1 UNK         0.3041 
     95 H95        22.4184    0.2568   -3.6764 H         1 UNK         0.0784 
     96 H96        21.7209   -2.1376   -3.8844 H         1 UNK         0.0793 
     97 H97        23.3281   -2.6719   -3.3762 H         1 UNK         0.0793 
     98 H98        22.2806   -1.8118   -2.2599 H         1 UNK         0.0793 
     99 H99        25.2372   -0.4143   -3.2615 H         1 UNK         0.3024 
    100 H100       26.2092    1.3819   -1.7509 H         1 UNK         0.1171 
    101 H101       24.9782    2.4627    0.1152 H         1 UNK         0.0786 
    102 H102       24.9411    0.9438    1.0004 H         1 UNK         0.0786 
    103 H103       26.4773    1.7515    0.6843 H         1 UNK         0.0786 
    104 H104       26.4322   -0.7909    0.1303 H         1 UNK         0.2977 
    105 H105       26.8704   -0.1400   -5.2751 H         1 UNK         0.3127 
    106 H106       28.8627    1.8404   -5.7082 H         1 UNK         0.0770 
    107 H107       26.1711    2.0026   -4.2666 H         1 UNK         0.0814 
    108 H108       27.4329    3.2251   -4.1869 H         1 UNK         0.0814 
    109 H109       27.7403    1.6205   -3.5472 H         1 UNK         0.0814 
    110 H110       25.5458    1.4704   -6.9464 H         1 UNK         0.2983 
    111 H111       25.4370    3.9578   -8.3711 H         1 UNK         0.0947 
    112 H112       23.5024    2.9054   -9.5275 H         1 UNK         0.0806 
    113 H113       23.4083    2.6284   -7.7946 H         1 UNK         0.0806 
    114 H114       23.9296    1.3330   -8.8691 H         1 UNK         0.0806 
    115 H115       26.4832    0.6619   -9.3275 H         1 UNK         0.3000 
    116 H116       26.9653    1.2705  -12.0593 H         1 UNK         0.0850 
    117 H117       28.1520   -0.9405  -12.0601 H         1 UNK         0.0810 
    118 H118       26.5716   -1.0298  -11.3011 H         1 UNK         0.0810 
    119 H119       28.0254   -1.0062  -10.3070 H         1 UNK         0.0810 
    120 H120       29.3211    0.9425   -9.3276 H         1 UNK         0.3040 
    121 H121       31.2137    2.7311  -10.6875 H         1 UNK         0.0766 
    122 H122       33.0154    0.9709  -10.8779 H         1 UNK         0.0812 
    123 H123       31.6628    0.6458  -11.9426 H         1 UNK         0.0812 
    124 H124       31.8401   -0.2646  -10.4446 H         1 UNK         0.0812 
    125 H125       30.3480    0.8613   -7.8238 H         1 UNK         0.3205 
    126 H126       31.0348    0.8378   -5.7271 H         1 UNK         0.0754 
    127 H127       31.6302    2.9454   -4.6608 H         1 UNK         0.0769 
    128 H128       30.5280    3.3560   -5.9659 H         1 UNK         0.0769 
    129 H129       32.2528    3.6176   -6.1591 H         1 UNK         0.0769 
    130 H130       32.9331   -0.1919   -7.7595 H         1 UNK         0.2981 
    131 H131       34.9424   -1.0164   -8.0493 H         1 UNK         0.0541 
    132 H132       34.5391    2.0817   -8.2148 H         1 UNK         0.3459 
    133 H133       36.2006    2.6032   -8.3543 H         1 UNK         0.3459 
    134 H134       35.4340   -0.6716   -5.0452 H         1 UNK         0.0612 
    135 H135       36.4884   -1.5358   -6.1262 H         1 UNK         0.0612 
    136 H136       33.0032   -1.4056   -4.4923 H         1 UNK         0.0624 
    137 H137       34.0950   -2.3215   -3.4785 H         1 UNK         0.0624 
@<TRIPOS>BOND
     1    1    2 1    
     2    1   72 1    
     3    1   73 1    
     4    1   74 1    
     5    2    3 2    
     6    2    4 am   BACKBONE|DICT|INTERRES
     7    4    5 1    
     8    4   75 1    
     9    5    6 1    
    10    5   35 1    
    11    5   76 1    
    12    6    7 1    
    13    6   77 1    
    14    6   78 1    
    15    7    8 1    
    16    8    9 1    
    17    8   79 1    
    18    8   80 1    
    19    9   10 ar   
    20    9   14 ar   
    21   10   11 ar   
    22   10   81 1    
    23   11   12 ar   
    24   11   71 1    
    25   12   13 ar   
    26   12   82 1    
    27   13   14 ar   
    28   13   15 1    
    29   14   83 1    
    30   15   16 1    
    31   15   84 1    
    32   15   85 1    
    33   16   17 1    
    34   17   18 1    
    35   17   86 1    
    36   17   87 1    
    37   18   19 1    
    38   18   37 1    
    39   18   88 1    
    40   19   20 am   BACKBONE|DICT|INTERRES
    41   19   89 1    
    42   20   21 2    
    43   20   22 1    
    44   22   23 1    
    45   22   24 1    
    46   22   90 1    
    47   23   91 1    
    48   23   92 1    
    49   23   93 1    
    50   24   25 am   BACKBONE|DICT|INTERRES
    51   24   94 1    
    52   25   26 2    
    53   25   27 1    
    54   27   28 1    
    55   27   29 1    
    56   27   95 1    
    57   28   96 1    
    58   28   97 1    
    59   28   98 1    
    60   29   30 am   BACKBONE|DICT|INTERRES
    61   29   99 1    
    62   30   31 2    
    63   30   32 1    
    64   32   33 1    
    65   32   34 1    
    66   32  100 1    
    67   33  101 1    
    68   33  102 1    
    69   33  103 1    
    70   34   35 am   BACKBONE|DICT|INTERRES
    71   34  104 1    
    72   35   36 2    
    73   37   38 2    
    74   37   39 am   BACKBONE|DICT|INTERRES
    75   39   40 1    
    76   39  105 1    
    77   40   41 1    
    78   40   42 1    
    79   40  106 1    
    80   41  107 1    
    81   41  108 1    
    82   41  109 1    
    83   42   43 2    
    84   42   44 am   BACKBONE|DICT|INTERRES
    85   44   45 1    
    86   44  110 1    
    87   45   46 1    
    88   45   47 1    
    89   45  111 1    
    90   46  112 1    
    91   46  113 1    
    92   46  114 1    
    93   47   48 2    
    94   47   49 am   BACKBONE|DICT|INTERRES
    95   49   50 1    
    96   49  115 1    
    97   50   51 1    
    98   50   52 1    
    99   50  116 1    
   100   51  117 1    
   101   51  118 1    
   102   51  119 1    
   103   52   53 2    
   104   52   54 am   BACKBONE|DICT|INTERRES
   105   54   55 1    
   106   54  120 1    
   107   55   56 1    
   108   55   57 1    
   109   55  121 1    
   110   56  122 1    
   111   56  123 1    
   112   56  124 1    
   113   57   58 2    
   114   57   59 am   BACKBONE|DICT|INTERRES
   115   59   60 1    
   116   59  125 1    
   117   60   61 1    
   118   60   62 1    
   119   60  126 1    
   120   61  127 1    
   121   61  128 1    
   122   61  129 1    
   123   62   63 2    
   124   62   64 am   BACKBONE|DICT|INTERRES
   125   64   65 1    
   126   64  130 1    
   127   65   66 1    
   128   65   69 1    
   129   65  131 1    
   130   66   67 am   BACKBONE|DICT|INTERRES
   131   66   68 2    
   132   67  132 1    
   133   67  133 1    
   134   69   70 1    
   135   69  134 1    
   136   69  135 1    
   137   70   71 1    
   138   71  136 1    
   139   71  137 1    
@<TRIPOS>SUBSTRUCTURE
     1 UNK         1 GROUP             0       ****    0 ROOT    
