@<TRIPOS>MOLECULE
3R137
137   139    1
SMALL
USER_CHARGES


@<TRIPOS>ATOM
      1 CA         22.7264   -5.7217   -2.1690 C.3       0 UNK        -0.2020 
      2 C          24.1266   -5.1299   -2.2094 C.2       0 UNK         0.4855 
      3 O          24.5421   -4.6199   -3.2499 O.2       0 UNK        -0.5197 
      4 N          24.8504   -5.1767   -1.0806 N.am      1 UNK        -0.4892 
      5 CA         26.2243   -4.6770   -0.9171 C.3       1 UNK         0.0835 
      6 C6         27.2450   -5.5317   -1.7163 C.3       12 UNK        -0.0855 
      7 S7         28.9295   -5.4872   -1.0140 S.3       12 UNK        -0.2931 
      8 C8         29.9699   -5.2375   -2.5004 C.3       12 UNK         0.0378 
      9 C9         30.6564   -3.8736   -2.6302 C.ar      12 UNK        -0.0802 
     10 C10        31.5229   -3.6782   -3.7111 C.ar      12 UNK        -0.0944 
     11 C11        32.2389   -2.4865   -3.8610 C.ar      12 UNK        -0.0787 
     12 C12        32.0859   -1.4772   -2.9049 C.ar      12 UNK        -0.0862 
     13 C13        31.1996   -1.6368   -1.8369 C.ar      12 UNK        -0.0733 
     14 C14        30.4867   -2.8333   -1.7060 C.ar      12 UNK        -0.0832 
     15 C15        31.0247   -0.5200   -0.8149 C.3       12 UNK         0.0240 
     16 S16        30.2849    0.9808   -1.5398 S.3       12 UNK        -0.2522 
     17 C17        28.7008    0.3408   -2.1751 C.3       12 UNK        -0.0967 
     18 CA         28.7073    0.1941   -3.7201 C.3       5 UNK         0.0660 
     19 N          27.8921   -0.9454   -4.1639 N.am      5 UNK        -0.4015 
     20 C          27.7172   -1.3310   -5.4380 C.2       4 UNK         0.4946 
     21 O          28.2303   -0.7701   -6.4022 O.2       4 UNK        -0.5353 
     22 CA         26.7605   -2.5055   -5.6898 C.3       4 UNK         0.0277 
     23 CB         27.4446   -3.8381   -5.3545 C.3       4 UNK        -0.1981 
     24 N          25.5163   -2.3571   -4.9311 N.am      4 UNK        -0.4209 
     25 C          24.6071   -1.3989   -5.1719 C.2       3 UNK         0.4942 
     26 O          24.6577   -0.6299   -6.1319 O.2       3 UNK        -0.5208 
     27 CA         23.4769   -1.2302   -4.1437 C.3       3 UNK         0.0250 
     28 CB         22.3110   -2.1890   -4.4341 C.3       3 UNK        -0.1990 
     29 N          23.9464   -1.4039   -2.7666 N.am      3 UNK        -0.4232 
     30 C          24.7919   -0.5656   -2.1484 C.2       2 UNK         0.4993 
     31 O          25.2338    0.4615   -2.6618 O.2       2 UNK        -0.5286 
     32 CA         25.2537   -0.9525   -0.7332 C.3       2 UNK         0.0209 
     33 CB         24.2800   -0.4015    0.3203 C.3       2 UNK        -0.1931 
     34 N          25.4117   -2.3981   -0.5472 N.am      2 UNK        -0.4546 
     35 C          26.3010   -3.1591   -1.2030 C.2       1 UNK         0.5154 
     36 O          27.0885   -2.7080   -2.0361 O.2       1 UNK        -0.5181 
     37 C          28.3212    1.5229   -4.4081 C.2       5 UNK         0.5014 
     38 O          29.1998    2.3054   -4.7728 O.2       5 UNK        -0.5248 
     39 N          27.0117    1.7399   -4.5857 N.am      6 UNK        -0.4434 
     40 CA         26.4298    2.9034   -5.2514 C.3       6 UNK         0.0363 
     41 CB         24.9421    2.9891   -4.8701 C.3       6 UNK        -0.1936 
     42 C          26.5901    2.9215   -6.7851 C.2       6 UNK         0.5081 
     43 O          26.3096    3.9621   -7.3830 O.2       6 UNK        -0.5248 
     44 N          26.9915    1.8063   -7.4159 N.am      7 UNK        -0.4718 
     45 CA         27.1300    1.7095   -8.8720 C.3       7 UNK         0.0273 
     46 CB         27.2066    0.2361   -9.3044 C.3       7 UNK        -0.1935 
     47 C          28.3505    2.4982   -9.3744 C.2       7 UNK         0.5018 
     48 O          29.4702    2.2605   -8.9133 O.2       7 UNK        -0.5186 
     49 N          28.1096    3.4048  -10.3321 N.am      8 UNK        -0.4240 
     50 CA         29.1116    4.3005  -10.9206 C.3       8 UNK         0.0235 
     51 CB         28.4046    5.3416  -11.8034 C.3       8 UNK        -0.2000 
     52 C          30.2128    3.5814  -11.7184 C.2       8 UNK         0.4941 
     53 O          31.3142    4.1199  -11.8419 O.2       8 UNK        -0.5273 
     54 N          29.9244    2.3717  -12.2185 N.am      9 UNK        -0.4262 
     55 CA         30.8572    1.4908  -12.9274 C.3       9 UNK         0.0264 
     56 CB         30.0470    0.4664  -13.7443 C.3       9 UNK        -0.1955 
     57 C          31.8675    0.8209  -11.9713 C.2       9 UNK         0.5031 
     58 O          31.9432   -0.4088  -11.9187 O.2       9 UNK        -0.5390 
     59 N          32.6016    1.6496  -11.2131 N.am      10 UNK        -0.4204 
     60 CA         33.6483    1.3077  -10.2399 C.3       10 UNK         0.0237 
     61 CB         34.9442    0.9227  -10.9847 C.3       10 UNK        -0.1985 
     62 C          33.2129    0.2428   -9.2111 C.2       10 UNK         0.4970 
     63 O          33.9834   -0.6761   -8.9282 O.2       10 UNK        -0.4914 
     64 N          31.9715    0.3712   -8.7180 N.am      11 UNK        -0.4285 
     65 CA         31.2463   -0.5864   -7.8649 C.3       11 UNK         0.1007 
     66 C          31.1568   -2.0571   -8.3811 C.2       11 UNK         0.5703 
     67 N          31.3279   -2.3134   -9.6740 N.am      11 UNK        -0.7361 
     68 O          30.8868   -2.9812   -7.6179 O.2       11 UNK        -0.4986 
     69 C69        31.5234   -0.4290   -6.3400 C.3       12 UNK        -0.0947 
     70 S70        33.2421   -0.6580   -5.7718 S.3       12 UNK        -0.2240 
     71 C71        33.1956   -2.3312   -5.0428 C.3       12 UNK         0.0194 
     72 H72        22.6314   -6.5059   -2.9196 H         1 UNK         0.0906 
     73 H73        22.4924   -6.1534   -1.1961 H         1 UNK         0.0906 
     74 H74        21.9868   -4.9516   -2.3864 H         1 UNK         0.0906 
     75 H75        24.4450   -5.6008   -0.2566 H         1 UNK         0.3140 
     76 H76        26.4553   -4.7926    0.1434 H         1 UNK         0.1085 
     77 H77        27.2402   -5.2581   -2.7697 H         1 UNK         0.0836 
     78 H78        26.9384   -6.5787   -1.6956 H         1 UNK         0.0836 
     79 H79        29.3954   -5.4384   -3.4047 H         1 UNK         0.0731 
     80 H80        30.7493   -6.0003   -2.4739 H         1 UNK         0.0731 
     81 H81        31.6548   -4.4708   -4.4354 H         1 UNK         0.1312 
     82 H82        32.6430   -0.5551   -2.9970 H         1 UNK         0.1406 
     83 H83        29.8090   -2.9487   -0.8727 H         1 UNK         0.1631 
     84 H84        31.9987   -0.2651   -0.3950 H         1 UNK         0.0717 
     85 H85        30.4079   -0.8499    0.0226 H         1 UNK         0.0717 
     86 H86        28.5178   -0.6207   -1.6975 H         1 UNK         0.0934 
     87 H87        27.8907    0.9876   -1.8322 H         1 UNK         0.0934 
     88 H88        29.7228   -0.0442   -4.0379 H         1 UNK         0.0739 
     89 H89        27.4704   -1.5108   -3.4301 H         1 UNK         0.3093 
     90 H90        26.5043   -2.5140   -6.7515 H         1 UNK         0.0818 
     91 H91        28.2712   -4.0283   -6.0407 H         1 UNK         0.0819 
     92 H92        27.8633   -3.8250   -4.3499 H         1 UNK         0.0819 
     93 H93        26.7538   -4.6782   -5.4280 H         1 UNK         0.0819 
     94 H94        25.3664   -2.9926   -4.1526 H         1 UNK         0.3041 
     95 H95        23.1006   -0.2088   -4.2362 H         1 UNK         0.0784 
     96 H96        21.9101   -2.0165   -5.4339 H         1 UNK         0.0793 
     97 H97        22.6178   -3.2335   -4.3866 H         1 UNK         0.0793 
     98 H98        21.4922   -2.0454   -3.7289 H         1 UNK         0.0793 
     99 H99        23.6638   -2.2456   -2.2873 H         1 UNK         0.3024 
    100 H100       26.2284   -0.4881   -0.5712 H         1 UNK         0.1171 
    101 H101       24.6423   -0.5874    1.3316 H         1 UNK         0.0786 
    102 H102       24.1621    0.6781    0.2144 H         1 UNK         0.0786 
    103 H103       23.2889   -0.8479    0.2301 H         1 UNK         0.0786 
    104 H104       24.7822   -2.8467    0.1030 H         1 UNK         0.2977 
    105 H105       26.3556    1.0770   -4.1816 H         1 UNK         0.3127 
    106 H106       26.9299    3.7952   -4.8679 H         1 UNK         0.0770 
    107 H107       24.3904    2.1126   -5.2128 H         1 UNK         0.0814 
    108 H108       24.4708    3.8670   -5.3139 H         1 UNK         0.0814 
    109 H109       24.8125    3.0644   -3.7902 H         1 UNK         0.0814 
    110 H110       27.2700    0.9929   -6.8756 H         1 UNK         0.2983 
    111 H111       26.2257    2.1318   -9.3162 H         1 UNK         0.0947 
    112 H112       27.1798    0.1475  -10.3910 H         1 UNK         0.0806 
    113 H113       26.3678   -0.3378   -8.9093 H         1 UNK         0.0806 
    114 H114       28.1250   -0.2414   -8.9660 H         1 UNK         0.0806 
    115 H115       27.1577    3.5339  -10.6447 H         1 UNK         0.3000 
    116 H116       29.6036    4.8262  -10.0993 H         1 UNK         0.0850 
    117 H117       29.1229    6.0417  -12.2330 H         1 UNK         0.0810 
    118 H118       27.6883    5.9295  -11.2290 H         1 UNK         0.0810 
    119 H119       27.8705    4.8743  -12.6318 H         1 UNK         0.0810 
    120 H120       29.0019    2.0009  -12.0446 H         1 UNK         0.3040 
    121 H121       31.4355    2.0930  -13.6315 H         1 UNK         0.0766 
    122 H122       29.3805    0.9597  -14.4520 H         1 UNK         0.0812 
    123 H123       29.4418   -0.1749  -13.1022 H         1 UNK         0.0812 
    124 H124       30.7068   -0.1816  -14.3229 H         1 UNK         0.0812 
    125 H125       32.4044    2.6424  -11.3239 H         1 UNK         0.3205 
    126 H126       33.8495    2.2157   -9.6695 H         1 UNK         0.0754 
    127 H127       35.7678    0.7651  -10.2870 H         1 UNK         0.0769 
    128 H128       35.2533    1.7077  -11.6749 H         1 UNK         0.0769 
    129 H129       34.8194    0.0029  -11.5575 H         1 UNK         0.0769 
    130 H130       31.4105    1.1578   -9.0218 H         1 UNK         0.2981 
    131 H131       30.2172   -0.2537   -7.9825 H         1 UNK         0.0541 
    132 H132       31.5586   -1.5762  -10.3323 H         1 UNK         0.3459 
    133 H133       31.2544   -3.2645   -9.9961 H         1 UNK         0.3459 
    134 H134       31.2274    0.5763   -6.0375 H         1 UNK         0.0612 
    135 H135       30.8697   -1.0938   -5.7755 H         1 UNK         0.0612 
    136 H136       32.9450   -3.0400   -5.8329 H         1 UNK         0.0624 
    137 H137       34.2008   -2.5880   -4.7073 H         1 UNK         0.0624 
@<TRIPOS>BOND
     1    1    2 1    
     2    1   72 1    
     3    1   73 1    
     4    1   74 1    
     5    2    3 2    
     6    2    4 am   BACKBONE|DICT|INTERRES
     7    4    5 1    
     8    4   75 1    
     9    5    6 1    
    10    5   35 1    
    11    5   76 1    
    12    6    7 1    
    13    6   77 1    
    14    6   78 1    
    15    7    8 1    
    16    8    9 1    
    17    8   79 1    
    18    8   80 1    
    19    9   10 ar   
    20    9   14 ar   
    21   10   11 ar   
    22   10   81 1    
    23   11   12 ar   
    24   11   71 1    
    25   12   13 ar   
    26   12   82 1    
    27   13   14 ar   
    28   13   15 1    
    29   14   83 1    
    30   15   16 1    
    31   15   84 1    
    32   15   85 1    
    33   16   17 1    
    34   17   18 1    
    35   17   86 1    
    36   17   87 1    
    37   18   19 1    
    38   18   37 1    
    39   18   88 1    
    40   19   20 am   BACKBONE|DICT|INTERRES
    41   19   89 1    
    42   20   21 2    
    43   20   22 1    
    44   22   23 1    
    45   22   24 1    
    46   22   90 1    
    47   23   91 1    
    48   23   92 1    
    49   23   93 1    
    50   24   25 am   BACKBONE|DICT|INTERRES
    51   24   94 1    
    52   25   26 2    
    53   25   27 1    
    54   27   28 1    
    55   27   29 1    
    56   27   95 1    
    57   28   96 1    
    58   28   97 1    
    59   28   98 1    
    60   29   30 am   BACKBONE|DICT|INTERRES
    61   29   99 1    
    62   30   31 2    
    63   30   32 1    
    64   32   33 1    
    65   32   34 1    
    66   32  100 1    
    67   33  101 1    
    68   33  102 1    
    69   33  103 1    
    70   34   35 am   BACKBONE|DICT|INTERRES
    71   34  104 1    
    72   35   36 2    
    73   37   38 2    
    74   37   39 am   BACKBONE|DICT|INTERRES
    75   39   40 1    
    76   39  105 1    
    77   40   41 1    
    78   40   42 1    
    79   40  106 1    
    80   41  107 1    
    81   41  108 1    
    82   41  109 1    
    83   42   43 2    
    84   42   44 am   BACKBONE|DICT|INTERRES
    85   44   45 1    
    86   44  110 1    
    87   45   46 1    
    88   45   47 1    
    89   45  111 1    
    90   46  112 1    
    91   46  113 1    
    92   46  114 1    
    93   47   48 2    
    94   47   49 am   BACKBONE|DICT|INTERRES
    95   49   50 1    
    96   49  115 1    
    97   50   51 1    
    98   50   52 1    
    99   50  116 1    
   100   51  117 1    
   101   51  118 1    
   102   51  119 1    
   103   52   53 2    
   104   52   54 am   BACKBONE|DICT|INTERRES
   105   54   55 1    
   106   54  120 1    
   107   55   56 1    
   108   55   57 1    
   109   55  121 1    
   110   56  122 1    
   111   56  123 1    
   112   56  124 1    
   113   57   58 2    
   114   57   59 am   BACKBONE|DICT|INTERRES
   115   59   60 1    
   116   59  125 1    
   117   60   61 1    
   118   60   62 1    
   119   60  126 1    
   120   61  127 1    
   121   61  128 1    
   122   61  129 1    
   123   62   63 2    
   124   62   64 am   BACKBONE|DICT|INTERRES
   125   64   65 1    
   126   64  130 1    
   127   65   66 1    
   128   65   69 1    
   129   65  131 1    
   130   66   67 am   BACKBONE|DICT|INTERRES
   131   66   68 2    
   132   67  132 1    
   133   67  133 1    
   134   69   70 1    
   135   69  134 1    
   136   69  135 1    
   137   70   71 1    
   138   71  136 1    
   139   71  137 1    
@<TRIPOS>SUBSTRUCTURE
     1 UNK         1 GROUP             0       ****    0 ROOT    
