@<TRIPOS>MOLECULE
3R137
137   139    1
SMALL
USER_CHARGES


@<TRIPOS>ATOM
      1 CA         24.1846   -6.5581   -0.8471 C.3       0 UNK        -0.2020 
      2 C          25.1763   -5.4058   -0.8891 C.2       0 UNK         0.4855 
      3 O          25.1110   -4.5082   -0.0485 O.2       0 UNK        -0.5197 
      4 N          26.0885   -5.4102   -1.8688 N.am      1 UNK        -0.4892 
      5 CA         27.1474   -4.4111   -2.0676 C.3       1 UNK         0.0835 
      6 C6         28.3280   -4.9950   -2.8892 C.3       12 UNK        -0.0855 
      7 S7         29.2753   -6.2745   -1.9905 S.3       12 UNK        -0.2931 
      8 C8         30.3191   -5.3123   -0.8321 C.3       12 UNK         0.0378 
      9 C9         30.8965   -4.0432   -1.4479 C.ar      12 UNK        -0.0802 
     10 C10        31.8363   -4.1190   -2.4810 C.ar      12 UNK        -0.0944 
     11 C11        32.2921   -2.9551   -3.1079 C.ar      12 UNK        -0.0787 
     12 C12        31.8192   -1.7095   -2.6842 C.ar      12 UNK        -0.0862 
     13 C13        30.8900   -1.6214   -1.6452 C.ar      12 UNK        -0.0733 
     14 C14        30.4428   -2.7904   -1.0219 C.ar      12 UNK        -0.0832 
     15 C15        30.3296   -0.2717   -1.2248 C.3       12 UNK         0.0240 
     16 S16        28.6057   -0.1119   -1.7810 S.3       12 UNK        -0.2522 
     17 C17        28.6125    1.4583   -2.7037 C.3       12 UNK        -0.0967 
     18 CA         29.1710    1.3528   -4.1505 C.3       5 UNK         0.0660 
     19 N          28.5248    0.2910   -4.9316 N.am      5 UNK        -0.4015 
     20 C          29.0839   -0.3607   -5.9624 C.2       4 UNK         0.4946 
     21 O          30.2263   -0.1245   -6.3659 O.2       4 UNK        -0.5353 
     22 CA         28.2374   -1.4097   -6.7041 C.3       4 UNK         0.0277 
     23 CB         28.8918   -2.7977   -6.6538 C.3       4 UNK        -0.1981 
     24 N          26.8762   -1.5137   -6.1840 N.am      4 UNK        -0.4209 
     25 C          25.7888   -1.0053   -6.7755 C.2       3 UNK         0.4942 
     26 O          25.8210   -0.3877   -7.8400 O.2       3 UNK        -0.5208 
     27 CA         24.4282   -1.2138   -6.0821 C.3       3 UNK         0.0250 
     28 CB         23.6444   -2.3379   -6.7778 C.3       3 UNK        -0.1990 
     29 N          24.5156   -1.5065   -4.6475 N.am      3 UNK        -0.4232 
     30 C          24.9532   -0.6448   -3.7194 C.2       2 UNK         0.4993 
     31 O          25.3240    0.5014   -3.9739 O.2       2 UNK        -0.5286 
     32 CA         25.0296   -1.1570   -2.2691 C.3       2 UNK         0.0209 
     33 CB         23.6506   -1.0597   -1.5965 C.3       2 UNK        -0.1931 
     34 N          25.5682   -2.5131   -2.0669 N.am      2 UNK        -0.4546 
     35 C          26.6156   -3.0907   -2.6755 C.2       1 UNK         0.5154 
     36 O          27.1610   -2.6234   -3.6736 O.2       1 UNK        -0.5181 
     37 C          29.0922    2.7097   -4.8912 C.2       5 UNK         0.5014 
     38 O          28.6303    3.6939   -4.3101 O.2       5 UNK        -0.5248 
     39 N          29.5302    2.7357   -6.1595 N.am      6 UNK        -0.4434 
     40 CA         29.4726    3.8613   -7.1015 C.3       6 UNK         0.0363 
     41 CB         30.3696    5.0288   -6.6380 C.3       6 UNK        -0.1936 
     42 C          28.0208    4.2807   -7.3978 C.2       6 UNK         0.5081 
     43 O          27.6263    5.4144   -7.1164 O.2       6 UNK        -0.5248 
     44 N          27.2517    3.3366   -7.9488 N.am      7 UNK        -0.4718 
     45 CA         25.8463    3.4974   -8.3105 C.3       7 UNK         0.0273 
     46 CB         24.9470    2.9450   -7.1860 C.3       7 UNK        -0.1935 
     47 C          25.6159    2.8651   -9.6897 C.2       7 UNK         0.5018 
     48 O          25.9052    3.5168  -10.6944 O.2       7 UNK        -0.5186 
     49 N          25.1144    1.6227   -9.7318 N.am      8 UNK        -0.4240 
     50 CA         24.9317    0.8478  -10.9646 C.3       8 UNK         0.0235 
     51 CB         23.9266   -0.2892  -10.7180 C.3       8 UNK        -0.2000 
     52 C          26.2666    0.2921  -11.4894 C.2       8 UNK         0.4941 
     53 O          26.4605    0.2210  -12.7038 O.2       8 UNK        -0.5273 
     54 N          27.1658   -0.0533  -10.5630 N.am      9 UNK        -0.4262 
     55 CA         28.5788   -0.3345  -10.7991 C.3       9 UNK         0.0264 
     56 CB         28.8364   -1.8443  -10.6390 C.3       9 UNK        -0.1955 
     57 C          29.4032    0.5116   -9.8164 C.2       9 UNK         0.5031 
     58 O          28.8258    1.1763   -8.9495 O.2       9 UNK        -0.5390 
     59 N          30.7308    0.4906   -9.9714 N.am      10 UNK        -0.4204 
     60 CA         31.6634    1.2845   -9.1755 C.3       10 UNK         0.0237 
     61 CB         31.9491    2.6170   -9.8992 C.3       10 UNK        -0.1985 
     62 C          32.9334    0.4708   -8.9038 C.2       10 UNK         0.4970 
     63 O          33.9572    0.7101   -9.5471 O.2       10 UNK        -0.4914 
     64 N          32.8470   -0.4843   -7.9690 N.am      11 UNK        -0.4285 
     65 CA         34.0163   -1.2332   -7.4678 C.3       11 UNK         0.1007 
     66 C          34.8254   -0.4863   -6.3671 C.2       11 UNK         0.5703 
     67 N          34.3312    0.6113   -5.8049 N.am      11 UNK        -0.7361 
     68 O          35.9301   -0.9036   -6.0280 O.2       11 UNK        -0.4986 
     69 C69        33.6729   -2.6924   -7.0627 C.3       12 UNK        -0.0947 
     70 S70        32.3357   -2.8335   -5.8365 S.3       12 UNK        -0.2240 
     71 C71        33.2520   -3.0346   -4.2817 C.3       12 UNK         0.0194 
     72 H72        23.1669   -6.1809   -0.9432 H         1 UNK         0.0906 
     73 H73        24.3580   -7.2757   -1.6489 H         1 UNK         0.0906 
     74 H74        24.2641   -7.0859    0.1029 H         1 UNK         0.0906 
     75 H75        26.0852   -6.1681   -2.5370 H         1 UNK         0.3140 
     76 H76        27.5392   -4.1343   -1.0866 H         1 UNK         0.1085 
     77 H77        27.9554   -5.4348   -3.8159 H         1 UNK         0.0836 
     78 H78        29.0215   -4.2178   -3.2122 H         1 UNK         0.0836 
     79 H79        29.7251   -5.0725    0.0512 H         1 UNK         0.0731 
     80 H80        31.1355   -5.9461   -0.4831 H         1 UNK         0.0731 
     81 H81        32.1761   -5.0864   -2.8251 H         1 UNK         0.1312 
     82 H82        32.1528   -0.8128   -3.1891 H         1 UNK         0.1406 
     83 H83        29.7066   -2.7206   -0.2325 H         1 UNK         0.1631 
     84 H84        30.9376    0.5402   -1.6263 H         1 UNK         0.0717 
     85 H85        30.3669   -0.1781   -0.1387 H         1 UNK         0.0717 
     86 H86        27.5809    1.8160   -2.7262 H         1 UNK         0.0934 
     87 H87        29.1723    2.1971   -2.1267 H         1 UNK         0.0934 
     88 H88        30.2322    1.1090   -4.0658 H         1 UNK         0.0739 
     89 H89        27.5744    0.0657   -4.6697 H         1 UNK         0.3093 
     90 H90        28.2011   -1.0973   -7.7447 H         1 UNK         0.0818 
     91 H91        28.2504   -3.5594   -7.0967 H         1 UNK         0.0819 
     92 H92        29.8241   -2.7997   -7.2177 H         1 UNK         0.0819 
     93 H93        29.1196   -3.1007   -5.6308 H         1 UNK         0.0819 
     94 H94        26.7885   -1.9823   -5.2816 H         1 UNK         0.3041 
     95 H95        23.8660   -0.2847   -6.1971 H         1 UNK         0.0784 
     96 H96        23.5283   -2.1324   -7.8429 H         1 UNK         0.0793 
     97 H97        24.1506   -3.2996   -6.6851 H         1 UNK         0.0793 
     98 H98        22.6428   -2.4419   -6.3602 H         1 UNK         0.0793 
     99 H99        24.2594   -2.4373   -4.3515 H         1 UNK         0.3024 
    100 H100       25.7008   -0.4788   -1.7401 H         1 UNK         0.1171 
    101 H101       23.2289   -0.0595   -1.7072 H         1 UNK         0.0786 
    102 H102       23.7151   -1.2646   -0.5276 H         1 UNK         0.0786 
    103 H103       22.9399   -1.7644   -2.0301 H         1 UNK         0.0786 
    104 H104       25.2013   -3.0194   -1.2652 H         1 UNK         0.2977 
    105 H105       29.8390    1.8493   -6.5488 H         1 UNK         0.3127 
    106 H106       29.8796    3.5003   -8.0443 H         1 UNK         0.0770 
    107 H107       30.0141    5.4758   -5.7093 H         1 UNK         0.0814 
    108 H108       30.3923    5.8198   -7.3884 H         1 UNK         0.0814 
    109 H109       31.3970    4.7006   -6.4816 H         1 UNK         0.0814 
    110 H110       27.6945    2.4592   -8.2235 H         1 UNK         0.2983 
    111 H111       25.6125    4.5579   -8.4292 H         1 UNK         0.0947 
    112 H112       23.8996    2.9176   -7.4894 H         1 UNK         0.0806 
    113 H113       25.0073    3.5779   -6.3004 H         1 UNK         0.0806 
    114 H114       25.2362    1.9416   -6.8794 H         1 UNK         0.0806 
    115 H115       25.0128    1.1087   -8.8622 H         1 UNK         0.3000 
    116 H116       24.5184    1.5067  -11.7315 H         1 UNK         0.0850 
    117 H117       23.7335   -0.8421  -11.6382 H         1 UNK         0.0810 
    118 H118       22.9702    0.0954  -10.3636 H         1 UNK         0.0810 
    119 H119       24.2953   -1.0040   -9.9818 H         1 UNK         0.0810 
    120 H120       26.9139    0.0690   -9.5864 H         1 UNK         0.3040 
    121 H121       28.8614   -0.0266  -11.8080 H         1 UNK         0.0766 
    122 H122       28.2789   -2.4125  -11.3838 H         1 UNK         0.0812 
    123 H123       28.5388   -2.2139   -9.6592 H         1 UNK         0.0812 
    124 H124       29.8903   -2.0887  -10.7751 H         1 UNK         0.0812 
    125 H125       31.1430   -0.0998  -10.6814 H         1 UNK         0.3205 
    126 H126       31.2285    1.5149   -8.2026 H         1 UNK         0.0754 
    127 H127       32.6232    3.2427   -9.3128 H         1 UNK         0.0769 
    128 H128       31.0353    3.1875  -10.0635 H         1 UNK         0.0769 
    129 H129       32.4132    2.4569  -10.8732 H         1 UNK         0.0769 
    130 H130       31.9773   -0.6117   -7.4597 H         1 UNK         0.2981 
    131 H131       34.7204   -1.3301   -8.2964 H         1 UNK         0.0541 
    132 H132       33.4211    0.9535   -6.0648 H         1 UNK         0.3459 
    133 H133       34.8707    1.0895   -5.1012 H         1 UNK         0.3459 
    134 H134       34.5579   -3.2202   -6.7023 H         1 UNK         0.0612 
    135 H135       33.3511   -3.2394   -7.9499 H         1 UNK         0.0612 
    136 H136       34.0087   -2.2553   -4.1882 H         1 UNK         0.0624 
    137 H137       33.7806   -3.9890   -4.2906 H         1 UNK         0.0624 
@<TRIPOS>BOND
     1    1    2 1    
     2    1   72 1    
     3    1   73 1    
     4    1   74 1    
     5    2    3 2    
     6    2    4 am   BACKBONE|DICT|INTERRES
     7    4    5 1    
     8    4   75 1    
     9    5    6 1    
    10    5   35 1    
    11    5   76 1    
    12    6    7 1    
    13    6   77 1    
    14    6   78 1    
    15    7    8 1    
    16    8    9 1    
    17    8   79 1    
    18    8   80 1    
    19    9   10 ar   
    20    9   14 ar   
    21   10   11 ar   
    22   10   81 1    
    23   11   12 ar   
    24   11   71 1    
    25   12   13 ar   
    26   12   82 1    
    27   13   14 ar   
    28   13   15 1    
    29   14   83 1    
    30   15   16 1    
    31   15   84 1    
    32   15   85 1    
    33   16   17 1    
    34   17   18 1    
    35   17   86 1    
    36   17   87 1    
    37   18   19 1    
    38   18   37 1    
    39   18   88 1    
    40   19   20 am   BACKBONE|DICT|INTERRES
    41   19   89 1    
    42   20   21 2    
    43   20   22 1    
    44   22   23 1    
    45   22   24 1    
    46   22   90 1    
    47   23   91 1    
    48   23   92 1    
    49   23   93 1    
    50   24   25 am   BACKBONE|DICT|INTERRES
    51   24   94 1    
    52   25   26 2    
    53   25   27 1    
    54   27   28 1    
    55   27   29 1    
    56   27   95 1    
    57   28   96 1    
    58   28   97 1    
    59   28   98 1    
    60   29   30 am   BACKBONE|DICT|INTERRES
    61   29   99 1    
    62   30   31 2    
    63   30   32 1    
    64   32   33 1    
    65   32   34 1    
    66   32  100 1    
    67   33  101 1    
    68   33  102 1    
    69   33  103 1    
    70   34   35 am   BACKBONE|DICT|INTERRES
    71   34  104 1    
    72   35   36 2    
    73   37   38 2    
    74   37   39 am   BACKBONE|DICT|INTERRES
    75   39   40 1    
    76   39  105 1    
    77   40   41 1    
    78   40   42 1    
    79   40  106 1    
    80   41  107 1    
    81   41  108 1    
    82   41  109 1    
    83   42   43 2    
    84   42   44 am   BACKBONE|DICT|INTERRES
    85   44   45 1    
    86   44  110 1    
    87   45   46 1    
    88   45   47 1    
    89   45  111 1    
    90   46  112 1    
    91   46  113 1    
    92   46  114 1    
    93   47   48 2    
    94   47   49 am   BACKBONE|DICT|INTERRES
    95   49   50 1    
    96   49  115 1    
    97   50   51 1    
    98   50   52 1    
    99   50  116 1    
   100   51  117 1    
   101   51  118 1    
   102   51  119 1    
   103   52   53 2    
   104   52   54 am   BACKBONE|DICT|INTERRES
   105   54   55 1    
   106   54  120 1    
   107   55   56 1    
   108   55   57 1    
   109   55  121 1    
   110   56  122 1    
   111   56  123 1    
   112   56  124 1    
   113   57   58 2    
   114   57   59 am   BACKBONE|DICT|INTERRES
   115   59   60 1    
   116   59  125 1    
   117   60   61 1    
   118   60   62 1    
   119   60  126 1    
   120   61  127 1    
   121   61  128 1    
   122   61  129 1    
   123   62   63 2    
   124   62   64 am   BACKBONE|DICT|INTERRES
   125   64   65 1    
   126   64  130 1    
   127   65   66 1    
   128   65   69 1    
   129   65  131 1    
   130   66   67 am   BACKBONE|DICT|INTERRES
   131   66   68 2    
   132   67  132 1    
   133   67  133 1    
   134   69   70 1    
   135   69  134 1    
   136   69  135 1    
   137   70   71 1    
   138   71  136 1    
   139   71  137 1    
@<TRIPOS>SUBSTRUCTURE
     1 UNK         1 GROUP             0       ****    0 ROOT    
