@<TRIPOS>MOLECULE
3R137
137   139    1
SMALL
USER_CHARGES


@<TRIPOS>ATOM
      1 CA         25.2510   -6.3087   -6.3391 C.3       0 UNK        -0.2020 
      2 C          25.6181   -5.1689   -5.4030 C.2       0 UNK         0.4855 
      3 O          24.8692   -4.1955   -5.3059 O.2       0 UNK        -0.5197 
      4 N          26.7507   -5.2904   -4.6931 N.am      1 UNK        -0.4892 
      5 CA         27.3557   -4.2778   -3.8071 C.3       1 UNK         0.0835 
      6 C6         27.9944   -3.1064   -4.6062 C.3       12 UNK        -0.0855 
      7 S7         29.5478   -3.5964   -5.4260 S.3       12 UNK        -0.2931 
      8 C8         30.7488   -3.4231   -4.0625 C.3       12 UNK         0.0378 
      9 C9         30.9606   -1.9745   -3.6425 C.ar      12 UNK        -0.0802 
     10 C10        31.8515   -1.1599   -4.3477 C.ar      12 UNK        -0.0944 
     11 C11        32.0822    0.1618   -3.9458 C.ar      12 UNK        -0.0787 
     12 C12        31.3852    0.6710   -2.8473 C.ar      12 UNK        -0.0862 
     13 C13        30.4708   -0.1234   -2.1510 C.ar      12 UNK        -0.0733 
     14 C14        30.2781   -1.4517   -2.5390 C.ar      12 UNK        -0.0832 
     15 C15        29.6856    0.4633   -0.9879 C.3       12 UNK         0.0240 
     16 S16        28.5315    1.7601   -1.5412 S.3       12 UNK        -0.2522 
     17 C17        27.3073    0.8075   -2.5092 C.3       12 UNK        -0.0967 
     18 CA         27.4462    0.8996   -4.0545 C.3       5 UNK         0.0660 
     19 N          26.4039    0.0904   -4.7078 N.am      5 UNK        -0.4015 
     20 C          26.1949   -0.0273   -6.0289 C.2       4 UNK         0.4946 
     21 O          26.9195    0.4913   -6.8763 O.2       4 UNK        -0.5353 
     22 CA         24.9529   -0.8054   -6.5038 C.3       4 UNK         0.0277 
     23 CB         25.2946   -1.8044   -7.6223 C.3       4 UNK        -0.1981 
     24 N          24.2259   -1.5061   -5.4417 N.am      4 UNK        -0.4209 
     25 C          23.3200   -0.9358   -4.6355 C.2       3 UNK         0.4942 
     26 O          23.1157    0.2779   -4.6007 O.2       3 UNK        -0.5208 
     27 CA         22.5084   -1.8597   -3.7178 C.3       3 UNK         0.0250 
     28 CB         21.3614   -2.5203   -4.5009 C.3       3 UNK        -0.1990 
     29 N          23.3420   -2.8997   -3.1114 N.am      3 UNK        -0.4232 
     30 C          23.4494   -3.1189   -1.7926 C.2       2 UNK         0.4993 
     31 O          22.8429   -2.4718   -0.9376 O.2       2 UNK        -0.5286 
     32 CA         24.3830   -4.2559   -1.3318 C.3       2 UNK         0.0209 
     33 CB         23.5687   -5.5182   -1.0032 C.3       2 UNK        -0.1931 
     34 N          25.4239   -4.5992   -2.3041 N.am      2 UNK        -0.4546 
     35 C          26.4242   -3.7864   -2.6717 C.2       1 UNK         0.5154 
     36 O          26.6150   -2.6879   -2.1495 O.2       1 UNK        -0.5181 
     37 C          27.4482    2.3621   -4.5621 C.2       5 UNK         0.5014 
     38 O          28.5075    2.9005   -4.8887 O.2       5 UNK        -0.5248 
     39 N          26.2493    2.9517   -4.6891 N.am      6 UNK        -0.4434 
     40 CA         26.0249    4.3025   -5.2136 C.3       6 UNK         0.0363 
     41 CB         24.5616    4.6976   -4.9566 C.3       6 UNK        -0.1936 
     42 C          26.3712    4.4744   -6.7069 C.2       6 UNK         0.5081 
     43 O          26.5554    5.6090   -7.1477 O.2       6 UNK        -0.5248 
     44 N          26.4559    3.3672   -7.4564 N.am      7 UNK        -0.4718 
     45 CA         26.8237    3.3301   -8.8733 C.3       7 UNK         0.0273 
     46 CB         25.8590    2.3780   -9.6041 C.3       7 UNK        -0.1935 
     47 C          28.2878    2.8967   -9.0794 C.2       7 UNK         0.5018 
     48 O          28.6810    2.6582  -10.2226 O.2       7 UNK        -0.5186 
     49 N          29.0611    2.7665   -7.9892 N.am      8 UNK        -0.4240 
     50 CA         30.4532    2.3040   -7.8894 C.3       8 UNK         0.0235 
     51 CB         31.4164    3.1767   -8.7184 C.3       8 UNK        -0.2000 
     52 C          30.6458    0.8080   -8.1955 C.2       8 UNK         0.4941 
     53 O          31.3709    0.1423   -7.4574 O.2       8 UNK        -0.5273 
     54 N          29.9956    0.3048   -9.2547 N.am      9 UNK        -0.4262 
     55 CA         29.9052   -1.0986   -9.6703 C.3       9 UNK         0.0264 
     56 CB         28.9006   -1.8390   -8.7630 C.3       9 UNK        -0.1955 
     57 C          31.2830   -1.7804   -9.7592 C.2       9 UNK         0.5031 
     58 O          32.0200   -1.5214  -10.7126 O.2       9 UNK        -0.5390 
     59 N          31.6209   -2.6029   -8.7556 N.am      10 UNK        -0.4204 
     60 CA         32.9003   -3.3034   -8.6214 C.3       10 UNK         0.0237 
     61 CB         32.8407   -4.2334   -7.4000 C.3       10 UNK        -0.1985 
     62 C          34.1273   -2.3766   -8.5270 C.2       10 UNK         0.4970 
     63 O          35.2196   -2.8095   -8.8975 O.2       10 UNK        -0.4914 
     64 N          33.9404   -1.1342   -8.0584 N.am      11 UNK        -0.4285 
     65 CA         34.9862   -0.0982   -8.0509 C.3       11 UNK         0.1007 
     66 C          35.2189    0.5701   -9.4391 C.2       11 UNK         0.5703 
     67 N          34.4154    0.3030  -10.4638 N.am      11 UNK        -0.7361 
     68 O          36.1605    1.3444   -9.5935 O.2       11 UNK        -0.4986 
     69 C69        34.7596    0.9726   -6.9507 C.3       12 UNK        -0.0947 
     70 S70        34.5572    0.2611   -5.2803 S.3       12 UNK        -0.2240 
     71 C71        33.0239    1.0786   -4.7189 C.3       12 UNK         0.0194 
     72 H72        24.2868   -6.7298   -6.0562 H         1 UNK         0.0906 
     73 H73        25.1749   -5.9399   -7.3615 H         1 UNK         0.0906 
     74 H74        25.9913   -7.1081   -6.3204 H         1 UNK         0.0906 
     75 H75        27.3047   -6.1282   -4.8105 H         1 UNK         0.3140 
     76 H76        28.1549   -4.7934   -3.2734 H         1 UNK         0.1085 
     77 H77        28.1991   -2.2337   -3.9897 H         1 UNK         0.0836 
     78 H78        27.3042   -2.7505   -5.3691 H         1 UNK         0.0836 
     79 H79        31.7013   -3.8521   -4.3744 H         1 UNK         0.0731 
     80 H80        30.4240   -4.0213   -3.2104 H         1 UNK         0.0731 
     81 H81        32.3617   -1.5537   -5.2155 H         1 UNK         0.1312 
     82 H82        31.5305    1.6997   -2.5462 H         1 UNK         0.1406 
     83 H83        29.5801   -2.0734   -1.9942 H         1 UNK         0.1631 
     84 H84        30.3832    0.8953   -0.2691 H         1 UNK         0.0717 
     85 H85        29.1328   -0.3104   -0.4524 H         1 UNK         0.0717 
     86 H86        27.3645   -0.2356   -2.1994 H         1 UNK         0.0934 
     87 H87        26.3168    1.1477   -2.2016 H         1 UNK         0.0934 
     88 H88        28.4067    0.4626   -4.3368 H         1 UNK         0.0739 
     89 H89        25.7516   -0.3748   -4.0941 H         1 UNK         0.3093 
     90 H90        24.2792   -0.0624   -6.9365 H         1 UNK         0.0818 
     91 H91        26.0686   -2.5099   -7.3211 H         1 UNK         0.0819 
     92 H92        24.4188   -2.3795   -7.9234 H         1 UNK         0.0819 
     93 H93        25.6494   -1.2816   -8.5104 H         1 UNK         0.0819 
     94 H94        24.3692   -2.5153   -5.4032 H         1 UNK         0.3041 
     95 H95        22.0665   -1.2263   -2.9455 H         1 UNK         0.0784 
     96 H96        20.7279   -1.7699   -4.9760 H         1 UNK         0.0793 
     97 H97        21.7341   -3.1800   -5.2858 H         1 UNK         0.0793 
     98 H98        20.7247   -3.1116   -3.8426 H         1 UNK         0.0793 
     99 H99        23.8871   -3.4770   -3.7448 H         1 UNK         0.3024 
    100 H100       24.8760   -3.9148   -0.4183 H         1 UNK         0.1171 
    101 H101       24.2029   -6.3055   -0.5951 H         1 UNK         0.0786 
    102 H102       22.8012   -5.3047   -0.2577 H         1 UNK         0.0786 
    103 H103       23.0644   -5.9143   -1.8855 H         1 UNK         0.0786 
    104 H104       25.3335   -5.4843   -2.7823 H         1 UNK         0.2977 
    105 H105       25.4260    2.4290   -4.4248 H         1 UNK         0.3127 
    106 H106       26.6675    4.9862   -4.6547 H         1 UNK         0.0770 
    107 H107       23.8675    4.0334   -5.4734 H         1 UNK         0.0814 
    108 H108       24.3631    5.7118   -5.3065 H         1 UNK         0.0814 
    109 H109       24.3233    4.6730   -3.8931 H         1 UNK         0.0814 
    110 H110       26.3611    2.4601   -7.0115 H         1 UNK         0.2983 
    111 H111       26.7204    4.3226   -9.3169 H         1 UNK         0.0947 
    112 H112       26.0460    2.3779  -10.6787 H         1 UNK         0.0806 
    113 H113       24.8208    2.6766   -9.4589 H         1 UNK         0.0806 
    114 H114       25.9646    1.3499   -9.2561 H         1 UNK         0.0806 
    115 H115       28.6171    2.9329   -7.0930 H         1 UNK         0.3000 
    116 H116       30.7148    2.4381   -6.8389 H         1 UNK         0.0850 
    117 H117       32.4524    2.8861   -8.5451 H         1 UNK         0.0810 
    118 H118       31.3262    4.2295   -8.4510 H         1 UNK         0.0810 
    119 H119       31.2361    3.0854   -9.7896 H         1 UNK         0.0810 
    120 H120       29.4718    0.9718   -9.8153 H         1 UNK         0.3040 
    121 H121       29.4989   -1.0996  -10.6827 H         1 UNK         0.0766 
    122 H122       27.9053   -1.4168   -8.8852 H         1 UNK         0.0812 
    123 H123       29.1560   -1.7516   -7.7068 H         1 UNK         0.0812 
    124 H124       28.8331   -2.8990   -9.0118 H         1 UNK         0.0812 
    125 H125       30.9675   -2.7030   -7.9912 H         1 UNK         0.3205 
    126 H126       33.0270   -3.9184   -9.5147 H         1 UNK         0.0754 
    127 H127       33.7512   -4.8286   -7.3175 H         1 UNK         0.0769 
    128 H128       32.0036   -4.9290   -7.4653 H         1 UNK         0.0769 
    129 H129       32.7380   -3.6673   -6.4748 H         1 UNK         0.0769 
    130 H130       33.0085   -0.8285   -7.7887 H         1 UNK         0.2981 
    131 H131       35.9295   -0.5907   -7.8079 H         1 UNK         0.0541 
    132 H132       33.6409   -0.3456  -10.3750 H         1 UNK         0.3459 
    133 H133       34.5939    0.7452  -11.3510 H         1 UNK         0.3459 
    134 H134       33.8959    1.5852   -7.2067 H         1 UNK         0.0612 
    135 H135       35.6085    1.6573   -6.9080 H         1 UNK         0.0612 
    136 H136       32.4675    1.4856   -5.5595 H         1 UNK         0.0624 
    137 H137       33.3112    1.9347   -4.1068 H         1 UNK         0.0624 
@<TRIPOS>BOND
     1    1    2 1    
     2    1   72 1    
     3    1   73 1    
     4    1   74 1    
     5    2    3 2    
     6    2    4 am   BACKBONE|DICT|INTERRES
     7    4    5 1    
     8    4   75 1    
     9    5    6 1    
    10    5   35 1    
    11    5   76 1    
    12    6    7 1    
    13    6   77 1    
    14    6   78 1    
    15    7    8 1    
    16    8    9 1    
    17    8   79 1    
    18    8   80 1    
    19    9   10 ar   
    20    9   14 ar   
    21   10   11 ar   
    22   10   81 1    
    23   11   12 ar   
    24   11   71 1    
    25   12   13 ar   
    26   12   82 1    
    27   13   14 ar   
    28   13   15 1    
    29   14   83 1    
    30   15   16 1    
    31   15   84 1    
    32   15   85 1    
    33   16   17 1    
    34   17   18 1    
    35   17   86 1    
    36   17   87 1    
    37   18   19 1    
    38   18   37 1    
    39   18   88 1    
    40   19   20 am   BACKBONE|DICT|INTERRES
    41   19   89 1    
    42   20   21 2    
    43   20   22 1    
    44   22   23 1    
    45   22   24 1    
    46   22   90 1    
    47   23   91 1    
    48   23   92 1    
    49   23   93 1    
    50   24   25 am   BACKBONE|DICT|INTERRES
    51   24   94 1    
    52   25   26 2    
    53   25   27 1    
    54   27   28 1    
    55   27   29 1    
    56   27   95 1    
    57   28   96 1    
    58   28   97 1    
    59   28   98 1    
    60   29   30 am   BACKBONE|DICT|INTERRES
    61   29   99 1    
    62   30   31 2    
    63   30   32 1    
    64   32   33 1    
    65   32   34 1    
    66   32  100 1    
    67   33  101 1    
    68   33  102 1    
    69   33  103 1    
    70   34   35 am   BACKBONE|DICT|INTERRES
    71   34  104 1    
    72   35   36 2    
    73   37   38 2    
    74   37   39 am   BACKBONE|DICT|INTERRES
    75   39   40 1    
    76   39  105 1    
    77   40   41 1    
    78   40   42 1    
    79   40  106 1    
    80   41  107 1    
    81   41  108 1    
    82   41  109 1    
    83   42   43 2    
    84   42   44 am   BACKBONE|DICT|INTERRES
    85   44   45 1    
    86   44  110 1    
    87   45   46 1    
    88   45   47 1    
    89   45  111 1    
    90   46  112 1    
    91   46  113 1    
    92   46  114 1    
    93   47   48 2    
    94   47   49 am   BACKBONE|DICT|INTERRES
    95   49   50 1    
    96   49  115 1    
    97   50   51 1    
    98   50   52 1    
    99   50  116 1    
   100   51  117 1    
   101   51  118 1    
   102   51  119 1    
   103   52   53 2    
   104   52   54 am   BACKBONE|DICT|INTERRES
   105   54   55 1    
   106   54  120 1    
   107   55   56 1    
   108   55   57 1    
   109   55  121 1    
   110   56  122 1    
   111   56  123 1    
   112   56  124 1    
   113   57   58 2    
   114   57   59 am   BACKBONE|DICT|INTERRES
   115   59   60 1    
   116   59  125 1    
   117   60   61 1    
   118   60   62 1    
   119   60  126 1    
   120   61  127 1    
   121   61  128 1    
   122   61  129 1    
   123   62   63 2    
   124   62   64 am   BACKBONE|DICT|INTERRES
   125   64   65 1    
   126   64  130 1    
   127   65   66 1    
   128   65   69 1    
   129   65  131 1    
   130   66   67 am   BACKBONE|DICT|INTERRES
   131   66   68 2    
   132   67  132 1    
   133   67  133 1    
   134   69   70 1    
   135   69  134 1    
   136   69  135 1    
   137   70   71 1    
   138   71  136 1    
   139   71  137 1    
@<TRIPOS>SUBSTRUCTURE
     1 UNK         1 GROUP             0       ****    0 ROOT    
