@<TRIPOS>MOLECULE
3R137
137   139    1
SMALL
USER_CHARGES


@<TRIPOS>ATOM
      1 CA         29.1501   -2.8259    3.1713 C.3       0 UNK        -0.2020 
      2 C          28.1252   -3.9340    2.9355 C.2       0 UNK         0.4855 
      3 O          28.0104   -4.8272    3.7727 O.2       0 UNK        -0.5197 
      4 N          27.3596   -3.9350    1.8376 N.am      1 UNK        -0.4892 
      5 CA         27.3139   -2.9564    0.7518 C.3       1 UNK         0.0835 
      6 C6         28.5825   -2.9752   -0.1523 C.3       12 UNK        -0.0855 
      7 S7         28.8067   -1.3997   -1.0578 S.3       12 UNK        -0.2931 
      8 C8         30.5002   -1.5546   -1.7102 C.3       12 UNK         0.0378 
      9 C9         30.6447   -2.2764   -3.0528 C.ar      12 UNK        -0.0802 
     10 C10        31.8066   -2.0373   -3.7905 C.ar      12 UNK        -0.0944 
     11 C11        32.0461   -2.7001   -4.9952 C.ar      12 UNK        -0.0787 
     12 C12        31.1135   -3.6305   -5.4638 C.ar      12 UNK        -0.0862 
     13 C13        29.9501   -3.8985   -4.7342 C.ar      12 UNK        -0.0733 
     14 C14        29.7088   -3.1992   -3.5451 C.ar      12 UNK        -0.0832 
     15 C15        29.0145   -5.0218   -5.1731 C.3       12 UNK         0.0240 
     16 S16        28.1093   -4.6685   -6.7134 S.3       12 UNK        -0.2522 
     17 C17        26.7745   -3.5787   -6.1163 C.3       12 UNK        -0.0967 
     18 CA         26.5015   -2.3898   -7.0694 C.3       5 UNK         0.0660 
     19 N          25.2581   -1.6898   -6.7381 N.am      5 UNK        -0.4015 
     20 C          24.6662   -0.7716   -7.5176 C.2       4 UNK         0.4946 
     21 O          25.0789   -0.4424   -8.6284 O.2       4 UNK        -0.5353 
     22 CA         23.4212   -0.0695   -6.9508 C.3       4 UNK         0.0277 
     23 CB         22.1606   -0.9106   -7.2072 C.3       4 UNK        -0.1981 
     24 N          23.5353    0.2269   -5.5219 N.am      4 UNK        -0.4209 
     25 C          24.4356    1.0676   -4.9920 C.2       3 UNK         0.4942 
     26 O          25.2399    1.7218   -5.6538 O.2       3 UNK        -0.5208 
     27 CA         24.4812    1.1501   -3.4582 C.3       3 UNK         0.0250 
     28 CB         23.4614    2.1770   -2.9408 C.3       3 UNK        -0.1990 
     29 N          24.2710   -0.1390   -2.7872 N.am      3 UNK        -0.4232 
     30 C          25.0358   -1.2240   -2.9697 C.2       2 UNK         0.4993 
     31 O          25.9682   -1.2818   -3.7759 O.2       2 UNK        -0.5286 
     32 CA         24.7542   -2.4316   -2.0747 C.3       2 UNK         0.0209 
     33 CB         24.5920   -3.7294   -2.8885 C.3       2 UNK        -0.1931 
     34 N          25.9023   -2.5172   -1.1883 N.am      2 UNK        -0.4546 
     35 C          25.9976   -3.1664   -0.0277 C.2       1 UNK         0.5154 
     36 O          25.1057   -3.8841    0.4352 O.2       1 UNK        -0.5181 
     37 C          27.6806   -1.4056   -7.1050 C.2       5 UNK         0.5014 
     38 O          28.3831   -1.3429   -8.1147 O.2       5 UNK        -0.5248 
     39 N          27.8370   -0.6279   -6.0233 N.am      6 UNK        -0.4434 
     40 CA         28.8804    0.3877   -5.8847 C.3       6 UNK         0.0363 
     41 CB         28.8049    1.0199   -4.4876 C.3       6 UNK        -0.1936 
     42 C          28.8236    1.4631   -6.9831 C.2       6 UNK         0.5081 
     43 O          29.8733    1.8550   -7.4917 O.2       6 UNK        -0.5248 
     44 N          27.6087    1.8888   -7.3578 N.am      7 UNK        -0.4718 
     45 CA         27.3588    2.8004   -8.4737 C.3       7 UNK         0.0273 
     46 CB         25.9002    3.2844   -8.4379 C.3       7 UNK        -0.1935 
     47 C          27.6950    2.1767   -9.8379 C.2       7 UNK         0.5018 
     48 O          28.4336    2.7921  -10.6068 O.2       7 UNK        -0.5186 
     49 N          27.1630    0.9759  -10.1161 N.am      8 UNK        -0.4240 
     50 CA         27.3401    0.2679  -11.3898 C.3       8 UNK         0.0235 
     51 CB         26.4178   -0.9604  -11.4437 C.3       8 UNK        -0.2000 
     52 C          28.7934   -0.1437  -11.6679 C.2       8 UNK         0.4941 
     53 O          29.2568    0.0088  -12.7989 O.2       8 UNK        -0.5273 
     54 N          29.4892   -0.6409  -10.6375 N.am      9 UNK        -0.4262 
     55 CA         30.9003   -1.0263  -10.7079 C.3       9 UNK         0.0264 
     56 CB         31.1771   -2.0896   -9.6338 C.3       9 UNK        -0.1955 
     57 C          31.8678    0.1677  -10.5807 C.2       9 UNK         0.5031 
     58 O          33.0632   -0.0161  -10.8161 O.2       9 UNK        -0.5390 
     59 N          31.3469    1.3543  -10.2267 N.am      10 UNK        -0.4204 
     60 CA         32.0582    2.6200  -10.0044 C.3       10 UNK         0.0237 
     61 CB         32.6505    3.1592  -11.3239 C.3       10 UNK        -0.1985 
     62 C          33.0920    2.5220   -8.8653 C.2       10 UNK         0.4970 
     63 O          34.2294    2.9741   -9.0143 O.2       10 UNK        -0.4914 
     64 N          32.6673    1.9211   -7.7494 N.am      11 UNK        -0.4285 
     65 CA         33.4782    1.6946   -6.5439 C.3       11 UNK         0.1007 
     66 C          33.4673    2.8921   -5.5519 C.2       11 UNK         0.5703 
     67 N          32.6241    3.9022   -5.7344 N.am      11 UNK        -0.7361 
     68 O          34.2492    2.9109   -4.6043 O.2       11 UNK        -0.4986 
     69 C69        33.0815    0.3759   -5.8297 C.3       12 UNK        -0.0947 
     70 S70        33.2081   -1.0748   -6.9284 S.3       12 UNK        -0.2240 
     71 C71        33.3448   -2.4517   -5.7498 C.3       12 UNK         0.0194 
     72 H72        29.2203   -2.6059    4.2363 H         1 UNK         0.0906 
     73 H73        30.1342   -3.1493    2.8339 H         1 UNK         0.0906 
     74 H74        28.9033   -1.8938    2.6672 H         1 UNK         0.0906 
     75 H75        26.6416   -4.6444    1.7404 H         1 UNK         0.3140 
     76 H76        27.2138   -1.9700    1.2085 H         1 UNK         0.1085 
     77 H77        29.4781   -3.1276    0.4492 H         1 UNK         0.0836 
     78 H78        28.5547   -3.8204   -0.8407 H         1 UNK         0.0836 
     79 H79        30.8918   -0.5413   -1.8138 H         1 UNK         0.0731 
     80 H80        31.1321   -2.0485   -0.9711 H         1 UNK         0.0731 
     81 H81        32.5431   -1.3404   -3.4145 H         1 UNK         0.1312 
     82 H82        31.3070   -4.1712   -6.3803 H         1 UNK         0.1406 
     83 H83        28.8071   -3.4102   -2.9919 H         1 UNK         0.1631 
     84 H84        28.3009   -5.2682   -4.3851 H         1 UNK         0.0717 
     85 H85        29.6084   -5.9238   -5.3273 H         1 UNK         0.0717 
     86 H86        25.8760   -4.1893   -6.0153 H         1 UNK         0.0934 
     87 H87        27.0150   -3.2254   -5.1130 H         1 UNK         0.0934 
     88 H88        26.3789   -2.7898   -8.0786 H         1 UNK         0.0739 
     89 H89        24.9006   -1.8323   -5.8048 H         1 UNK         0.3093 
     90 H90        23.3109    0.8800   -7.4791 H         1 UNK         0.0818 
     91 H91        21.2606   -0.3836   -6.8897 H         1 UNK         0.0819 
     92 H92        22.0480   -1.1275   -8.2705 H         1 UNK         0.0819 
     93 H93        22.1944   -1.8659   -6.6819 H         1 UNK         0.0819 
     94 H94        22.9101   -0.2616   -4.8975 H         1 UNK         0.3041 
     95 H95        25.4802    1.4969   -3.1852 H         1 UNK         0.0784 
     96 H96        23.6109    3.1479   -3.4157 H         1 UNK         0.0793 
     97 H97        22.4353    1.8689   -3.1453 H         1 UNK         0.0793 
     98 H98        23.5597    2.3274   -1.8655 H         1 UNK         0.0793 
     99 H99        23.5376   -0.1689   -2.0931 H         1 UNK         0.3024 
    100 H100       23.8503   -2.2575   -1.4867 H         1 UNK         0.1171 
    101 H101       23.8049   -3.6287   -3.6367 H         1 UNK         0.0786 
    102 H102       24.3212   -4.5666   -2.2452 H         1 UNK         0.0786 
    103 H103       25.5113   -3.9983   -3.4082 H         1 UNK         0.0786 
    104 H104       26.6995   -1.9610   -1.4831 H         1 UNK         0.2977 
    105 H105       27.2055   -0.7537   -5.2362 H         1 UNK         0.3127 
    106 H106       29.8379   -0.1285   -5.9775 H         1 UNK         0.0770 
    107 H107       27.8545    1.5304   -4.3276 H         1 UNK         0.0814 
    108 H108       29.6008    1.7525   -4.3478 H         1 UNK         0.0814 
    109 H109       28.9154    0.2666   -3.7078 H         1 UNK         0.0814 
    110 H110       26.7950    1.5659   -6.8409 H         1 UNK         0.2983 
    111 H111       28.0054    3.6709   -8.3421 H         1 UNK         0.0947 
    112 H112       25.6937    3.9677   -9.2627 H         1 UNK         0.0806 
    113 H113       25.6845    3.8188   -7.5125 H         1 UNK         0.0806 
    114 H114       25.1960    2.4551   -8.5143 H         1 UNK         0.0806 
    115 H115       26.5553    0.5295   -9.4329 H         1 UNK         0.3000 
    116 H116       27.0373    0.9505  -12.1866 H         1 UNK         0.0850 
    117 H117       26.5349   -1.4987  -12.3852 H         1 UNK         0.0810 
    118 H118       25.3696   -0.6718  -11.3646 H         1 UNK         0.0810 
    119 H119       26.6338   -1.6610  -10.6358 H         1 UNK         0.0810 
    120 H120       29.0248   -0.7755   -9.7385 H         1 UNK         0.3040 
    121 H121       31.0898   -1.4842  -11.6811 H         1 UNK         0.0766 
    122 H122       32.2211   -2.4050   -9.6488 H         1 UNK         0.0812 
    123 H123       30.5660   -2.9788   -9.7889 H         1 UNK         0.0812 
    124 H124       30.9618   -1.7122   -8.6343 H         1 UNK         0.0812 
    125 H125       30.3516    1.3881  -10.0477 H         1 UNK         0.3205 
    126 H126       31.3036    3.3331   -9.6686 H         1 UNK         0.0754 
    127 H127       33.0744    4.1542  -11.1835 H         1 UNK         0.0769 
    128 H128       31.8853    3.2394  -12.0962 H         1 UNK         0.0769 
    129 H129       33.4459    2.5178  -11.7046 H         1 UNK         0.0769 
    130 H130       31.6861    1.6582   -7.6864 H         1 UNK         0.2981 
    131 H131       34.5185    1.5844   -6.8558 H         1 UNK         0.0541 
    132 H132       31.9722    3.8878   -6.5023 H         1 UNK         0.3459 
    133 H133       32.6315    4.6757   -5.0889 H         1 UNK         0.3459 
    134 H134       32.0616    0.4379   -5.4485 H         1 UNK         0.0612 
    135 H135       33.7274    0.2068   -4.9664 H         1 UNK         0.0612 
    136 H136       33.6292   -3.3501   -6.2995 H         1 UNK         0.0624 
    137 H137       34.1598   -2.2541   -5.0519 H         1 UNK         0.0624 
@<TRIPOS>BOND
     1    1    2 1    
     2    1   72 1    
     3    1   73 1    
     4    1   74 1    
     5    2    3 2    
     6    2    4 am   BACKBONE|DICT|INTERRES
     7    4    5 1    
     8    4   75 1    
     9    5    6 1    
    10    5   35 1    
    11    5   76 1    
    12    6    7 1    
    13    6   77 1    
    14    6   78 1    
    15    7    8 1    
    16    8    9 1    
    17    8   79 1    
    18    8   80 1    
    19    9   10 ar   
    20    9   14 ar   
    21   10   11 ar   
    22   10   81 1    
    23   11   12 ar   
    24   11   71 1    
    25   12   13 ar   
    26   12   82 1    
    27   13   14 ar   
    28   13   15 1    
    29   14   83 1    
    30   15   16 1    
    31   15   84 1    
    32   15   85 1    
    33   16   17 1    
    34   17   18 1    
    35   17   86 1    
    36   17   87 1    
    37   18   19 1    
    38   18   37 1    
    39   18   88 1    
    40   19   20 am   BACKBONE|DICT|INTERRES
    41   19   89 1    
    42   20   21 2    
    43   20   22 1    
    44   22   23 1    
    45   22   24 1    
    46   22   90 1    
    47   23   91 1    
    48   23   92 1    
    49   23   93 1    
    50   24   25 am   BACKBONE|DICT|INTERRES
    51   24   94 1    
    52   25   26 2    
    53   25   27 1    
    54   27   28 1    
    55   27   29 1    
    56   27   95 1    
    57   28   96 1    
    58   28   97 1    
    59   28   98 1    
    60   29   30 am   BACKBONE|DICT|INTERRES
    61   29   99 1    
    62   30   31 2    
    63   30   32 1    
    64   32   33 1    
    65   32   34 1    
    66   32  100 1    
    67   33  101 1    
    68   33  102 1    
    69   33  103 1    
    70   34   35 am   BACKBONE|DICT|INTERRES
    71   34  104 1    
    72   35   36 2    
    73   37   38 2    
    74   37   39 am   BACKBONE|DICT|INTERRES
    75   39   40 1    
    76   39  105 1    
    77   40   41 1    
    78   40   42 1    
    79   40  106 1    
    80   41  107 1    
    81   41  108 1    
    82   41  109 1    
    83   42   43 2    
    84   42   44 am   BACKBONE|DICT|INTERRES
    85   44   45 1    
    86   44  110 1    
    87   45   46 1    
    88   45   47 1    
    89   45  111 1    
    90   46  112 1    
    91   46  113 1    
    92   46  114 1    
    93   47   48 2    
    94   47   49 am   BACKBONE|DICT|INTERRES
    95   49   50 1    
    96   49  115 1    
    97   50   51 1    
    98   50   52 1    
    99   50  116 1    
   100   51  117 1    
   101   51  118 1    
   102   51  119 1    
   103   52   53 2    
   104   52   54 am   BACKBONE|DICT|INTERRES
   105   54   55 1    
   106   54  120 1    
   107   55   56 1    
   108   55   57 1    
   109   55  121 1    
   110   56  122 1    
   111   56  123 1    
   112   56  124 1    
   113   57   58 2    
   114   57   59 am   BACKBONE|DICT|INTERRES
   115   59   60 1    
   116   59  125 1    
   117   60   61 1    
   118   60   62 1    
   119   60  126 1    
   120   61  127 1    
   121   61  128 1    
   122   61  129 1    
   123   62   63 2    
   124   62   64 am   BACKBONE|DICT|INTERRES
   125   64   65 1    
   126   64  130 1    
   127   65   66 1    
   128   65   69 1    
   129   65  131 1    
   130   66   67 am   BACKBONE|DICT|INTERRES
   131   66   68 2    
   132   67  132 1    
   133   67  133 1    
   134   69   70 1    
   135   69  134 1    
   136   69  135 1    
   137   70   71 1    
   138   71  136 1    
   139   71  137 1    
@<TRIPOS>SUBSTRUCTURE
     1 UNK         1 GROUP             0       ****    0 ROOT    
