@<TRIPOS>MOLECULE
3R137
137   139    1
SMALL
USER_CHARGES


@<TRIPOS>ATOM
      1 CA         24.2757   -3.3627   -1.1833 C.3       0 UNK        -0.2020 
      2 C          25.1770   -4.1269   -2.1507 C.2       0 UNK         0.4855 
      3 O          24.6671   -4.8756   -2.9810 O.2       0 UNK        -0.5197 
      4 N          26.5091   -3.9924   -2.0799 N.am      1 UNK        -0.4892 
      5 CA         27.2699   -3.0937   -1.2023 C.3       1 UNK         0.0835 
      6 C6         28.7901   -3.3904   -1.2253 C.3       12 UNK        -0.0855 
      7 S7         29.2165   -5.1607   -1.0393 S.3       12 UNK        -0.2931 
      8 C8         30.9052   -5.2397   -1.7393 C.3       12 UNK         0.0378 
      9 C9         31.0062   -4.5361   -3.0863 C.ar      12 UNK        -0.0802 
     10 C10        31.7307   -3.3443   -3.2026 C.ar      12 UNK        -0.0944 
     11 C11        31.7447   -2.6260   -4.4018 C.ar      12 UNK        -0.0787 
     12 C12        31.0088   -3.1211   -5.4872 C.ar      12 UNK        -0.0862 
     13 C13        30.2999   -4.3225   -5.3962 C.ar      12 UNK        -0.0733 
     14 C14        30.3163   -5.0353   -4.1945 C.ar      12 UNK        -0.0832 
     15 C15        29.5387   -4.8453   -6.6105 C.3       12 UNK         0.0240 
     16 S16        27.8013   -5.2951   -6.2718 S.3       12 UNK        -0.2522 
     17 C17        27.0806   -3.7670   -5.5847 C.3       12 UNK        -0.0967 
     18 CA         26.7812   -2.6811   -6.6555 C.3       5 UNK         0.0660 
     19 N          25.4881   -2.0177   -6.4405 N.am      5 UNK        -0.4015 
     20 C          24.9232   -1.1513   -7.2964 C.2       4 UNK         0.4946 
     21 O          25.4269   -0.8148   -8.3663 O.2       4 UNK        -0.5353 
     22 CA         23.5752   -0.5278   -6.8958 C.3       4 UNK         0.0277 
     23 CB         22.4155   -1.4441   -7.3181 C.3       4 UNK        -0.1981 
     24 N          23.4421   -0.1933   -5.4749 N.am      4 UNK        -0.4209 
     25 C          24.2746    0.5862   -4.7705 C.2       3 UNK         0.4942 
     26 O          25.3209    1.0557   -5.2237 O.2       3 UNK        -0.5208 
     27 CA         23.8989    0.8791   -3.3104 C.3       3 UNK         0.0250 
     28 CB         22.6932    0.0739   -2.7752 C.3       3 UNK        -0.1990 
     29 N          25.0842    0.6109   -2.5119 N.am      3 UNK        -0.4232 
     30 C          25.4156    1.1472   -1.3380 C.2       2 UNK         0.4993 
     31 O          24.6951    1.9277   -0.7128 O.2       2 UNK        -0.5286 
     32 CA         26.7905    0.7242   -0.7758 C.3       2 UNK         0.0209 
     33 CB         27.1080    1.3955    0.5740 C.3       2 UNK        -0.1931 
     34 N          26.9426   -0.7298   -0.6257 N.am      2 UNK        -0.4546 
     35 C          27.0528   -1.6257   -1.6169 C.2       1 UNK         0.5154 
     36 O          27.0118   -1.3372   -2.8190 O.2       1 UNK        -0.5181 
     37 C          27.9233   -1.6532   -6.7485 C.2       5 UNK         0.5014 
     38 O          28.6024   -1.5804   -7.7751 O.2       5 UNK        -0.5248 
     39 N          28.0804   -0.8561   -5.6814 N.am      6 UNK        -0.4434 
     40 CA         29.0721    0.2124   -5.5762 C.3       6 UNK         0.0363 
     41 CB         29.0170    0.8104   -4.1636 C.3       6 UNK        -0.1936 
     42 C          28.9041    1.3041   -6.6438 C.2       6 UNK         0.5081 
     43 O          29.9079    1.7980   -7.1587 O.2       6 UNK        -0.5248 
     44 N          27.6499    1.6418   -6.9749 N.am      7 UNK        -0.4718 
     45 CA         27.3029    2.5913   -8.0317 C.3       7 UNK         0.0273 
     46 CB         25.8041    2.9241   -7.9621 C.3       7 UNK        -0.1935 
     47 C          27.6918    2.0920   -9.4330 C.2       7 UNK         0.5018 
     48 O          28.3443    2.8318  -10.1698 O.2       7 UNK        -0.5186 
     49 N          27.3017    0.8544   -9.7753 N.am      8 UNK        -0.4240 
     50 CA         27.5636    0.2405  -11.0811 C.3       8 UNK         0.0235 
     51 CB         26.7378   -1.0468  -11.2331 C.3       8 UNK        -0.2000 
     52 C          29.0513   -0.0475  -11.3275 C.2       8 UNK         0.4941 
     53 O          29.5356    0.1923  -12.4343 O.2       8 UNK        -0.5273 
     54 N          29.7504   -0.5457  -10.2991 N.am      9 UNK        -0.4262 
     55 CA         31.1829   -0.8486  -10.3560 C.3       9 UNK         0.0264 
     56 CB         31.5044   -1.8982   -9.2863 C.3       9 UNK        -0.1955 
     57 C          32.0858    0.3901  -10.1946 C.2       9 UNK         0.5031 
     58 O          33.2853    0.2801  -10.4533 O.2       9 UNK        -0.5390 
     59 N          31.5079    1.5287   -9.7802 N.am      10 UNK        -0.4204 
     60 CA         32.1555    2.8179   -9.5121 C.3       10 UNK         0.0237 
     61 CB         32.7381    3.4291  -10.8049 C.3       10 UNK        -0.1985 
     62 C          33.1766    2.7272   -8.3617 C.2       10 UNK         0.4970 
     63 O          34.3366    3.1122   -8.5242 O.2       10 UNK        -0.4914 
     64 N          32.7092    2.2201   -7.2178 N.am      11 UNK        -0.4285 
     65 CA         33.4735    2.0469   -5.9723 C.3       11 UNK         0.1007 
     66 C          32.7052    2.5230   -4.7075 C.2       11 UNK         0.5703 
     67 N          31.6293    3.2897   -4.8414 N.am      11 UNK        -0.7361 
     68 O          33.1058    2.2284   -3.5841 O.2       11 UNK        -0.4986 
     69 C69        34.1084    0.6318   -5.8434 C.3       12 UNK        -0.0947 
     70 S70        32.9669   -0.7577   -6.1500 S.3       12 UNK        -0.2240 
     71 C71        32.5386   -1.3153   -4.4649 C.3       12 UNK         0.0194 
     72 H72        24.5856   -3.5130   -0.1500 H         1 UNK         0.0906 
     73 H73        24.2789   -2.2962   -1.4021 H         1 UNK         0.0906 
     74 H74        23.2469   -3.7124   -1.2681 H         1 UNK         0.0906 
     75 H75        27.0800   -4.5373   -2.7091 H         1 UNK         0.3140 
     76 H76        26.9153   -3.2379   -0.1801 H         1 UNK         0.1085 
     77 H77        29.2035   -3.0193   -2.1628 H         1 UNK         0.0836 
     78 H78        29.2991   -2.8350   -0.4350 H         1 UNK         0.0836 
     79 H79        31.1967   -6.2847   -1.8528 H         1 UNK         0.0731 
     80 H80        31.6026   -4.8030   -1.0227 H         1 UNK         0.0731 
     81 H81        32.2639   -2.9569   -2.3448 H         1 UNK         0.1312 
     82 H82        30.9784   -2.5743   -6.4150 H         1 UNK         0.1406 
     83 H83        29.7570   -5.9572   -4.1076 H         1 UNK         0.1631 
     84 H84        30.0557   -5.7294   -6.9854 H         1 UNK         0.0717 
     85 H85        29.5576   -4.1202   -7.4250 H         1 UNK         0.0717 
     86 H86        26.1496   -4.0805   -5.1118 H         1 UNK         0.0934 
     87 H87        27.7013   -3.4005   -4.7643 H         1 UNK         0.0934 
     88 H88        26.7069   -3.1653   -7.6320 H         1 UNK         0.0739 
     89 H89        25.0063   -2.2218   -5.5780 H         1 UNK         0.3093 
     90 H90        23.4801    0.4082   -7.4497 H         1 UNK         0.0818 
     91 H91        21.4501   -0.9624   -7.1613 H         1 UNK         0.0819 
     92 H92        22.4809   -1.6923   -8.3787 H         1 UNK         0.0819 
     93 H93        22.4176   -2.3832   -6.7633 H         1 UNK         0.0819 
     94 H94        22.6144   -0.5375   -5.0100 H         1 UNK         0.3041 
     95 H95        23.6677    1.9445   -3.2498 H         1 UNK         0.0784 
     96 H96        21.7786    0.3241   -3.3142 H         1 UNK         0.0793 
     97 H97        22.8494   -1.0021   -2.8567 H         1 UNK         0.0793 
     98 H98        22.5071    0.2984   -1.7247 H         1 UNK         0.0793 
     99 H99        25.7615   -0.0202   -2.9366 H         1 UNK         0.3024 
    100 H100       27.5378    1.0680   -1.4941 H         1 UNK         0.1171 
    101 H101       28.1130    1.1469    0.9154 H         1 UNK         0.0786 
    102 H102       27.0579    2.4823    0.4926 H         1 UNK         0.0786 
    103 H103       26.4040    1.0938    1.3506 H         1 UNK         0.0786 
    104 H104       26.9727   -1.0635    0.3272 H         1 UNK         0.2977 
    105 H105       27.4859   -0.9931   -4.8716 H         1 UNK         0.3127 
    106 H106       30.0552   -0.2352   -5.7236 H         1 UNK         0.0770 
    107 H107       28.0285    1.2128   -3.9389 H         1 UNK         0.0814 
    108 H108       29.7323    1.6217   -4.0476 H         1 UNK         0.0814 
    109 H109       29.2599    0.0618   -3.4095 H         1 UNK         0.0814 
    110 H110       26.8793    1.2228   -6.4614 H         1 UNK         0.2983 
    111 H111       27.8610    3.5115   -7.8445 H         1 UNK         0.0947 
    112 H112       25.5298    3.6538   -8.7250 H         1 UNK         0.0806 
    113 H113       25.5379    3.3497   -6.9944 H         1 UNK         0.0806 
    114 H114       25.1863    2.0398   -8.1180 H         1 UNK         0.0806 
    115 H115       26.7532    0.3026   -9.1179 H         1 UNK         0.3000 
    116 H116       27.2343    0.9439  -11.8489 H         1 UNK         0.0850 
    117 H117       26.9107   -1.5120  -12.2044 H         1 UNK         0.0810 
    118 H118       25.6696   -0.8429  -11.1568 H         1 UNK         0.0810 
    119 H119       26.9929   -1.7809  -10.4672 H         1 UNK         0.0810 
    120 H120       29.2703   -0.7577   -9.4262 H         1 UNK         0.3040 
    121 H121       31.4101   -1.2856  -11.3308 H         1 UNK         0.0766 
    122 H122       31.2518   -1.5173   -8.3001 H         1 UNK         0.0812 
    123 H123       32.5648   -2.1544   -9.2815 H         1 UNK         0.0812 
    124 H124       30.9429   -2.8188   -9.4457 H         1 UNK         0.0812 
    125 H125       30.5205    1.4935   -9.5620 H         1 UNK         0.3205 
    126 H126       31.3640    3.4848   -9.1660 H         1 UNK         0.0754 
    127 H127       33.1170    4.4354  -10.6227 H         1 UNK         0.0769 
    128 H128       31.9782    3.5047  -11.5829 H         1 UNK         0.0769 
    129 H129       33.5650    2.8383  -11.2000 H         1 UNK         0.0769 
    130 H130       31.7291    1.9444   -7.1723 H         1 UNK         0.2981 
    131 H131       34.3107    2.7462   -6.0053 H         1 UNK         0.0541 
    132 H132       31.2865    3.5436   -5.7541 H         1 UNK         0.3459 
    133 H133       31.1577    3.6198   -4.0151 H         1 UNK         0.3459 
    134 H134       34.6022    0.5008   -4.8793 H         1 UNK         0.0612 
    135 H135       34.9049    0.5434   -6.5835 H         1 UNK         0.0612 
    136 H136       33.4645   -1.4316   -3.8995 H         1 UNK         0.0624 
    137 H137       31.9643   -0.5312   -3.9701 H         1 UNK         0.0624 
@<TRIPOS>BOND
     1    1    2 1    
     2    1   72 1    
     3    1   73 1    
     4    1   74 1    
     5    2    3 2    
     6    2    4 am   BACKBONE|DICT|INTERRES
     7    4    5 1    
     8    4   75 1    
     9    5    6 1    
    10    5   35 1    
    11    5   76 1    
    12    6    7 1    
    13    6   77 1    
    14    6   78 1    
    15    7    8 1    
    16    8    9 1    
    17    8   79 1    
    18    8   80 1    
    19    9   10 ar   
    20    9   14 ar   
    21   10   11 ar   
    22   10   81 1    
    23   11   12 ar   
    24   11   71 1    
    25   12   13 ar   
    26   12   82 1    
    27   13   14 ar   
    28   13   15 1    
    29   14   83 1    
    30   15   16 1    
    31   15   84 1    
    32   15   85 1    
    33   16   17 1    
    34   17   18 1    
    35   17   86 1    
    36   17   87 1    
    37   18   19 1    
    38   18   37 1    
    39   18   88 1    
    40   19   20 am   BACKBONE|DICT|INTERRES
    41   19   89 1    
    42   20   21 2    
    43   20   22 1    
    44   22   23 1    
    45   22   24 1    
    46   22   90 1    
    47   23   91 1    
    48   23   92 1    
    49   23   93 1    
    50   24   25 am   BACKBONE|DICT|INTERRES
    51   24   94 1    
    52   25   26 2    
    53   25   27 1    
    54   27   28 1    
    55   27   29 1    
    56   27   95 1    
    57   28   96 1    
    58   28   97 1    
    59   28   98 1    
    60   29   30 am   BACKBONE|DICT|INTERRES
    61   29   99 1    
    62   30   31 2    
    63   30   32 1    
    64   32   33 1    
    65   32   34 1    
    66   32  100 1    
    67   33  101 1    
    68   33  102 1    
    69   33  103 1    
    70   34   35 am   BACKBONE|DICT|INTERRES
    71   34  104 1    
    72   35   36 2    
    73   37   38 2    
    74   37   39 am   BACKBONE|DICT|INTERRES
    75   39   40 1    
    76   39  105 1    
    77   40   41 1    
    78   40   42 1    
    79   40  106 1    
    80   41  107 1    
    81   41  108 1    
    82   41  109 1    
    83   42   43 2    
    84   42   44 am   BACKBONE|DICT|INTERRES
    85   44   45 1    
    86   44  110 1    
    87   45   46 1    
    88   45   47 1    
    89   45  111 1    
    90   46  112 1    
    91   46  113 1    
    92   46  114 1    
    93   47   48 2    
    94   47   49 am   BACKBONE|DICT|INTERRES
    95   49   50 1    
    96   49  115 1    
    97   50   51 1    
    98   50   52 1    
    99   50  116 1    
   100   51  117 1    
   101   51  118 1    
   102   51  119 1    
   103   52   53 2    
   104   52   54 am   BACKBONE|DICT|INTERRES
   105   54   55 1    
   106   54  120 1    
   107   55   56 1    
   108   55   57 1    
   109   55  121 1    
   110   56  122 1    
   111   56  123 1    
   112   56  124 1    
   113   57   58 2    
   114   57   59 am   BACKBONE|DICT|INTERRES
   115   59   60 1    
   116   59  125 1    
   117   60   61 1    
   118   60   62 1    
   119   60  126 1    
   120   61  127 1    
   121   61  128 1    
   122   61  129 1    
   123   62   63 2    
   124   62   64 am   BACKBONE|DICT|INTERRES
   125   64   65 1    
   126   64  130 1    
   127   65   66 1    
   128   65   69 1    
   129   65  131 1    
   130   66   67 am   BACKBONE|DICT|INTERRES
   131   66   68 2    
   132   67  132 1    
   133   67  133 1    
   134   69   70 1    
   135   69  134 1    
   136   69  135 1    
   137   70   71 1    
   138   71  136 1    
   139   71  137 1    
@<TRIPOS>SUBSTRUCTURE
     1 UNK         1 GROUP             0       ****    0 ROOT    
