@<TRIPOS>MOLECULE
3R137
137   139    1
SMALL
USER_CHARGES


@<TRIPOS>ATOM
      1 CA         27.1210   -0.8269    3.0022 C.3       0 UNK        -0.2020 
      2 C          27.3805   -2.1412    2.2710 C.2       0 UNK         0.4855 
      3 O          27.4858   -3.1813    2.9175 O.2       0 UNK        -0.5197 
      4 N          27.4906   -2.1559    0.9348 N.am      1 UNK        -0.4892 
      5 CA         27.3673   -1.0071    0.0222 C.3       1 UNK         0.0835 
      6 C6         28.1200   -1.2501   -1.3097 C.3       12 UNK        -0.0855 
      7 S7         29.9198   -1.3980   -1.0483 S.3       12 UNK        -0.2931 
      8 C8         30.2338   -3.1401   -1.4761 C.3       12 UNK         0.0378 
      9 C9         30.4021   -3.3503   -2.9759 C.ar      12 UNK        -0.0802 
     10 C10        31.5356   -2.8529   -3.6256 C.ar      12 UNK        -0.0944 
     11 C11        31.7447   -3.0926   -4.9874 C.ar      12 UNK        -0.0787 
     12 C12        30.8025   -3.8408   -5.7033 C.ar      12 UNK        -0.0862 
     13 C13        29.6642   -4.3452   -5.0660 C.ar      12 UNK        -0.0733 
     14 C14        29.4652   -4.0894   -3.7044 C.ar      12 UNK        -0.0832 
     15 C15        28.6819   -5.2290   -5.8209 C.3       12 UNK         0.0240 
     16 S16        27.1084   -4.3804   -6.1558 S.3       12 UNK        -0.2522 
     17 C17        27.2891   -3.8261   -7.8887 C.3       12 UNK        -0.0967 
     18 CA         26.9964   -2.3193   -8.1043 C.3       5 UNK         0.0660 
     19 N          25.7600   -1.8829   -7.4421 N.am      5 UNK        -0.4015 
     20 C          25.2349   -0.6499   -7.4728 C.2       4 UNK         0.4946 
     21 O          25.7383    0.2885   -8.0909 O.2       4 UNK        -0.5353 
     22 CA         23.9387   -0.3991   -6.6818 C.3       4 UNK         0.0277 
     23 CB         22.7587   -0.2028   -7.6477 C.3       4 UNK        -0.1981 
     24 N          23.5937   -1.4413   -5.7073 N.am      4 UNK        -0.4209 
     25 C          24.2632   -1.6890   -4.5735 C.2       3 UNK         0.4942 
     26 O          25.3171   -1.1308   -4.2591 O.2       3 UNK        -0.5208 
     27 CA         23.6678   -2.7743   -3.6622 C.3       3 UNK         0.0250 
     28 CB         24.3199   -4.1381   -3.9338 C.3       3 UNK        -0.1990 
     29 N          23.8544   -2.4349   -2.2537 N.am      3 UNK        -0.4232 
     30 C          23.1032   -1.5611   -1.5707 C.2       2 UNK         0.4993 
     31 O          22.1183   -0.9887   -2.0396 O.2       2 UNK        -0.5286 
     32 CA         23.5117   -1.2870   -0.1125 C.3       2 UNK         0.0209 
     33 CB         22.7136   -2.1821    0.8498 C.3       2 UNK        -0.1931 
     34 N          24.9457   -1.4856    0.1215 N.am      2 UNK        -0.4546 
     35 C          25.8981   -0.6188   -0.2536 C.2       1 UNK         0.5154 
     36 O          25.6537    0.4636   -0.7871 O.2       1 UNK        -0.5181 
     37 C          28.2218   -1.4457   -7.7732 C.2       5 UNK         0.5014 
     38 O          29.0028   -1.1477   -8.6776 O.2       5 UNK        -0.5248 
     39 N          28.3302   -1.0020   -6.5130 N.am      6 UNK        -0.4434 
     40 CA         29.3825   -0.1031   -6.0364 C.3       6 UNK         0.0363 
     41 CB         29.2575    0.0633   -4.5183 C.3       6 UNK        -0.1936 
     42 C          29.3810    1.2704   -6.7267 C.2       6 UNK         0.5081 
     43 O          30.4530    1.8346   -6.9480 O.2       6 UNK        -0.5248 
     44 N          28.1870    1.7753   -7.0628 N.am      7 UNK        -0.4718 
     45 CA         27.9993    3.0248   -7.7959 C.3       7 UNK         0.0273 
     46 CB         26.6408    3.6421   -7.4256 C.3       7 UNK        -0.1935 
     47 C          28.1032    2.8004   -9.3101 C.2       7 UNK         0.5018 
     48 O          28.7534    3.5942   -9.9889 O.2       7 UNK        -0.5186 
     49 N          27.4806    1.7218   -9.8088 N.am      8 UNK        -0.4240 
     50 CA         27.4282    1.3632  -11.2291 C.3       8 UNK         0.0235 
     51 CB         26.4556    0.1915  -11.4345 C.3       8 UNK        -0.2000 
     52 C          28.8053    1.0417  -11.8316 C.2       8 UNK         0.4941 
     53 O          29.1085    1.5225  -12.9242 O.2       8 UNK        -0.5273 
     54 N          29.6221    0.2632  -11.1073 N.am      9 UNK        -0.4262 
     55 CA         31.0067   -0.0405  -11.4844 C.3       9 UNK         0.0264 
     56 CB         31.3954   -1.4134  -10.9114 C.3       9 UNK        -0.1955 
     57 C          32.0009    1.0402  -11.0196 C.2       9 UNK         0.5031 
     58 O          33.1633    0.9908  -11.4237 O.2       9 UNK        -0.5390 
     59 N          31.5419    1.9719  -10.1684 N.am      10 UNK        -0.4204 
     60 CA         32.2910    3.0599   -9.5242 C.3       10 UNK         0.0237 
     61 CB         32.7844    4.0821  -10.5701 C.3       10 UNK        -0.1985 
     62 C          33.4167    2.5757   -8.5855 C.2       10 UNK         0.4970 
     63 O          34.3478    3.3345   -8.3091 O.2       10 UNK        -0.4914 
     64 N          33.3118    1.3302   -8.1081 N.am      11 UNK        -0.4285 
     65 CA         34.2463    0.6967   -7.1712 C.3       11 UNK         0.1007 
     66 C          34.0004    1.0619   -5.6785 C.2       11 UNK         0.5703 
     67 N          32.8753    1.6676   -5.3155 N.am      11 UNK        -0.7361 
     68 O          34.8582    0.8043   -4.8374 O.2       11 UNK        -0.4986 
     69 C69        34.3249   -0.8347   -7.4096 C.3       12 UNK        -0.0947 
     70 S70        32.7263   -1.6917   -7.2007 S.3       12 UNK        -0.2240 
     71 C71        33.0246   -2.5935   -5.6488 C.3       12 UNK         0.0194 
     72 H72        27.9462   -0.1312    2.8535 H         1 UNK         0.0906 
     73 H73        26.1973   -0.3596    2.6632 H         1 UNK         0.0906 
     74 H74        27.0263   -1.0003    4.0741 H         1 UNK         0.0906 
     75 H75        27.6897   -3.0386    0.4870 H         1 UNK         0.3140 
     76 H76        27.8249   -0.1347    0.4929 H         1 UNK         0.1085 
     77 H77        27.9638   -0.4108   -1.9894 H         1 UNK         0.0836 
     78 H78        27.7354   -2.1304   -1.8284 H         1 UNK         0.0836 
     79 H79        31.1494   -3.4580   -0.9752 H         1 UNK         0.0731 
     80 H80        29.4387   -3.7698   -1.0746 H         1 UNK         0.0731 
     81 H81        32.2660   -2.2919   -3.0583 H         1 UNK         0.1312 
     82 H82        30.9691   -4.0478   -6.7516 H         1 UNK         0.1406 
     83 H83        28.5922   -4.4928   -3.2093 H         1 UNK         0.1631 
     84 H84        28.4705   -6.1122   -5.2164 H         1 UNK         0.0717 
     85 H85        29.1193   -5.6044   -6.7470 H         1 UNK         0.0717 
     86 H86        28.2762   -4.0885   -8.2750 H         1 UNK         0.0934 
     87 H87        26.5870   -4.4122   -8.4837 H         1 UNK         0.0934 
     88 H88        26.8197   -2.1862   -9.1723 H         1 UNK         0.0739 
     89 H89        25.2931   -2.5849   -6.8876 H         1 UNK         0.3093 
     90 H90        24.0843    0.5328   -6.1312 H         1 UNK         0.0818 
     91 H91        21.8505    0.0789   -7.1146 H         1 UNK         0.0819 
     92 H92        22.9684    0.5923   -8.3651 H         1 UNK         0.0819 
     93 H93        22.5484   -1.1080   -8.2188 H         1 UNK         0.0819 
     94 H94        22.7485   -1.9632   -5.8928 H         1 UNK         0.3041 
     95 H95        22.5970   -2.8582   -3.8621 H         1 UNK         0.0784 
     96 H96        24.1995   -4.4317   -4.9774 H         1 UNK         0.0793 
     97 H97        25.3888   -4.1231   -3.7171 H         1 UNK         0.0793 
     98 H98        23.8675   -4.9216   -3.3255 H         1 UNK         0.0793 
     99 H99        24.6664   -2.8230   -1.7990 H         1 UNK         0.3024 
    100 H100       23.2629   -0.2451    0.1041 H         1 UNK         0.1171 
    101 H101       21.6404   -2.0373    0.7168 H         1 UNK         0.0786 
    102 H102       22.9434   -1.9501    1.8900 H         1 UNK         0.0786 
    103 H103       22.9221   -3.2402    0.6868 H         1 UNK         0.0786 
    104 H104       25.2283   -2.3425    0.5762 H         1 UNK         0.2977 
    105 H105       27.6363   -1.2956   -5.8389 H         1 UNK         0.3127 
    106 H106       30.3396   -0.5777   -6.2462 H         1 UNK         0.0770 
    107 H107       28.3134    0.5328   -4.2392 H         1 UNK         0.0814 
    108 H108       30.0649    0.6813   -4.1234 H         1 UNK         0.0814 
    109 H109       29.3165   -0.9018   -4.0178 H         1 UNK         0.0814 
    110 H110       27.3609    1.2108   -6.9097 H         1 UNK         0.2983 
    111 H111       28.7807    3.7319   -7.5069 H         1 UNK         0.0947 
    112 H112       26.4874    4.5866   -7.9492 H         1 UNK         0.0806 
    113 H113       26.5798    3.8508   -6.3574 H         1 UNK         0.0806 
    114 H114       25.8089    2.9867   -7.6862 H         1 UNK         0.0806 
    115 H115       26.9359    1.1426   -9.1713 H         1 UNK         0.3000 
    116 H116       27.0303    2.2278  -11.7647 H         1 UNK         0.0850 
    117 H117       26.3426   -0.0394  -12.4945 H         1 UNK         0.0810 
    118 H118       25.4642    0.4234  -11.0445 H         1 UNK         0.0810 
    119 H119       26.8069   -0.7134  -10.9406 H         1 UNK         0.0810 
    120 H120       29.2950   -0.1320  -10.2262 H         1 UNK         0.3040 
    121 H121       31.0787   -0.1011  -12.5724 H         1 UNK         0.0766 
    122 H122       32.4033   -1.6960  -11.2179 H         1 UNK         0.0812 
    123 H123       30.7191   -2.1948  -11.2580 H         1 UNK         0.0812 
    124 H124       31.3759   -1.4147   -9.8221 H         1 UNK         0.0812 
    125 H125       30.5627    1.9269   -9.9222 H         1 UNK         0.3205 
    126 H126       31.5727    3.5718   -8.8820 H         1 UNK         0.0754 
    127 H127       33.2047    4.9656  -10.0881 H         1 UNK         0.0769 
    128 H128       31.9668    4.4213  -11.2063 H         1 UNK         0.0769 
    129 H129       33.5593    3.6629  -11.2126 H         1 UNK         0.0769 
    130 H130       32.4882    0.7933   -8.3352 H         1 UNK         0.2981 
    131 H131       35.2407    1.0870   -7.3958 H         1 UNK         0.0541 
    132 H132       32.1383    1.8413   -5.9920 H         1 UNK         0.3459 
    133 H133       32.7381    1.9090   -4.3480 H         1 UNK         0.3459 
    134 H134       35.0804   -1.2870   -6.7648 H         1 UNK         0.0612 
    135 H135       34.6648   -1.0232   -8.4291 H         1 UNK         0.0612 
    136 H136       33.6772   -3.4435   -5.8513 H         1 UNK         0.0624 
    137 H137       33.5675   -1.9398   -4.9644 H         1 UNK         0.0624 
@<TRIPOS>BOND
     1    1    2 1    
     2    1   72 1    
     3    1   73 1    
     4    1   74 1    
     5    2    3 2    
     6    2    4 am   BACKBONE|DICT|INTERRES
     7    4    5 1    
     8    4   75 1    
     9    5    6 1    
    10    5   35 1    
    11    5   76 1    
    12    6    7 1    
    13    6   77 1    
    14    6   78 1    
    15    7    8 1    
    16    8    9 1    
    17    8   79 1    
    18    8   80 1    
    19    9   10 ar   
    20    9   14 ar   
    21   10   11 ar   
    22   10   81 1    
    23   11   12 ar   
    24   11   71 1    
    25   12   13 ar   
    26   12   82 1    
    27   13   14 ar   
    28   13   15 1    
    29   14   83 1    
    30   15   16 1    
    31   15   84 1    
    32   15   85 1    
    33   16   17 1    
    34   17   18 1    
    35   17   86 1    
    36   17   87 1    
    37   18   19 1    
    38   18   37 1    
    39   18   88 1    
    40   19   20 am   BACKBONE|DICT|INTERRES
    41   19   89 1    
    42   20   21 2    
    43   20   22 1    
    44   22   23 1    
    45   22   24 1    
    46   22   90 1    
    47   23   91 1    
    48   23   92 1    
    49   23   93 1    
    50   24   25 am   BACKBONE|DICT|INTERRES
    51   24   94 1    
    52   25   26 2    
    53   25   27 1    
    54   27   28 1    
    55   27   29 1    
    56   27   95 1    
    57   28   96 1    
    58   28   97 1    
    59   28   98 1    
    60   29   30 am   BACKBONE|DICT|INTERRES
    61   29   99 1    
    62   30   31 2    
    63   30   32 1    
    64   32   33 1    
    65   32   34 1    
    66   32  100 1    
    67   33  101 1    
    68   33  102 1    
    69   33  103 1    
    70   34   35 am   BACKBONE|DICT|INTERRES
    71   34  104 1    
    72   35   36 2    
    73   37   38 2    
    74   37   39 am   BACKBONE|DICT|INTERRES
    75   39   40 1    
    76   39  105 1    
    77   40   41 1    
    78   40   42 1    
    79   40  106 1    
    80   41  107 1    
    81   41  108 1    
    82   41  109 1    
    83   42   43 2    
    84   42   44 am   BACKBONE|DICT|INTERRES
    85   44   45 1    
    86   44  110 1    
    87   45   46 1    
    88   45   47 1    
    89   45  111 1    
    90   46  112 1    
    91   46  113 1    
    92   46  114 1    
    93   47   48 2    
    94   47   49 am   BACKBONE|DICT|INTERRES
    95   49   50 1    
    96   49  115 1    
    97   50   51 1    
    98   50   52 1    
    99   50  116 1    
   100   51  117 1    
   101   51  118 1    
   102   51  119 1    
   103   52   53 2    
   104   52   54 am   BACKBONE|DICT|INTERRES
   105   54   55 1    
   106   54  120 1    
   107   55   56 1    
   108   55   57 1    
   109   55  121 1    
   110   56  122 1    
   111   56  123 1    
   112   56  124 1    
   113   57   58 2    
   114   57   59 am   BACKBONE|DICT|INTERRES
   115   59   60 1    
   116   59  125 1    
   117   60   61 1    
   118   60   62 1    
   119   60  126 1    
   120   61  127 1    
   121   61  128 1    
   122   61  129 1    
   123   62   63 2    
   124   62   64 am   BACKBONE|DICT|INTERRES
   125   64   65 1    
   126   64  130 1    
   127   65   66 1    
   128   65   69 1    
   129   65  131 1    
   130   66   67 am   BACKBONE|DICT|INTERRES
   131   66   68 2    
   132   67  132 1    
   133   67  133 1    
   134   69   70 1    
   135   69  134 1    
   136   69  135 1    
   137   70   71 1    
   138   71  136 1    
   139   71  137 1    
@<TRIPOS>SUBSTRUCTURE
     1 UNK         1 GROUP             0       ****    0 ROOT    
