@<TRIPOS>MOLECULE
3R137
137   139    1
SMALL
USER_CHARGES


@<TRIPOS>ATOM
      1 CA         30.8732    0.2002   -1.7695 C.3       0 UNK        -0.2020 
      2 C          29.9127   -0.9484   -2.0352 C.2       0 UNK         0.4855 
      3 O          29.3050   -1.0001   -3.1027 O.2       0 UNK        -0.5197 
      4 N          29.7653   -1.8680   -1.0729 N.am      1 UNK        -0.4892 
      5 CA         28.9391   -3.0767   -1.1761 C.3       1 UNK         0.0835 
      6 C6         29.4275   -4.2045   -0.2243 C.3       12 UNK        -0.0855 
      7 S7         31.1999   -4.6120   -0.3842 S.3       12 UNK        -0.2931 
      8 C8         31.1772   -5.9560   -1.6143 C.3       12 UNK         0.0378 
      9 C9         30.9992   -5.4186   -3.0265 C.ar      12 UNK        -0.0802 
     10 C10        32.0201   -4.6656   -3.6144 C.ar      12 UNK        -0.0944 
     11 C11        31.8697   -4.1476   -4.9025 C.ar      12 UNK        -0.0787 
     12 C12        30.6943   -4.4028   -5.6129 C.ar      12 UNK        -0.0862 
     13 C13        29.6613   -5.1483   -5.0342 C.ar      12 UNK        -0.0733 
     14 C14        29.8228   -5.6628   -3.7433 C.ar      12 UNK        -0.0832 
     15 C15        28.3660   -5.3851   -5.8009 C.3       12 UNK         0.0240 
     16 S16        26.9983   -4.3538   -5.1758 S.3       12 UNK        -0.2522 
     17 C17        27.5951   -2.6708   -5.5437 C.3       12 UNK        -0.0967 
     18 CA         26.8107   -1.9750   -6.6788 C.3       5 UNK         0.0660 
     19 N          25.4011   -1.7568   -6.3524 N.am      5 UNK        -0.4015 
     20 C          24.4567   -1.4211   -7.2429 C.2       4 UNK         0.4946 
     21 O          24.6502   -1.3497   -8.4567 O.2       4 UNK        -0.5353 
     22 CA         23.0633   -1.0822   -6.6841 C.3       4 UNK         0.0277 
     23 CB         22.2057   -2.3526   -6.5684 C.3       4 UNK        -0.1981 
     24 N          23.1145   -0.4063   -5.3843 N.am      4 UNK        -0.4209 
     25 C          23.6162    0.8219   -5.1841 C.2       3 UNK         0.4942 
     26 O          24.0474    1.5410   -6.0839 O.2       3 UNK        -0.5208 
     27 CA         23.7035    1.3033   -3.7242 C.3       3 UNK         0.0250 
     28 CB         22.3712    1.9258   -3.2772 C.3       3 UNK        -0.1990 
     29 N          24.0947    0.2410   -2.7886 N.am      3 UNK        -0.4232 
     30 C          25.2521   -0.4306   -2.8566 C.2       2 UNK         0.4993 
     31 O          26.1200   -0.2049   -3.7024 O.2       2 UNK        -0.5286 
     32 CA         25.4402   -1.5877   -1.8716 C.3       2 UNK         0.0209 
     33 CB         24.5515   -2.7838   -2.2726 C.3       2 UNK        -0.1931 
     34 N          26.8470   -1.9860   -1.8705 N.am      2 UNK        -0.4546 
     35 C          27.4432   -2.7542   -0.9546 C.2       1 UNK         0.5154 
     36 O          26.8585   -3.1860    0.0418 O.2       1 UNK        -0.5181 
     37 C          27.4787   -0.6418   -7.0543 C.2       5 UNK         0.5014 
     38 O          28.0662   -0.5508   -8.1306 O.2       5 UNK        -0.5248 
     39 N          27.3343    0.3736   -6.1889 N.am      6 UNK        -0.4434 
     40 CA         27.8888    1.7193   -6.3639 C.3       6 UNK         0.0363 
     41 CB         27.5744    2.5667   -5.1220 C.3       6 UNK        -0.1936 
     42 C          27.4118    2.4291   -7.6434 C.2       6 UNK         0.5081 
     43 O          28.1896    3.1631   -8.2525 O.2       6 UNK        -0.5248 
     44 N          26.1580    2.1786   -8.0454 N.am      7 UNK        -0.4718 
     45 CA         25.5809    2.6413   -9.3090 C.3       7 UNK         0.0273 
     46 CB         24.0633    2.3984   -9.2925 C.3       7 UNK        -0.1935 
     47 C          26.2140    1.9876  -10.5517 C.2       7 UNK         0.5018 
     48 O          26.2408    2.6227  -11.6069 O.2       7 UNK        -0.5186 
     49 N          26.7024    0.7459  -10.4188 N.am      8 UNK        -0.4240 
     50 CA         27.4002    0.0182  -11.4792 C.3       8 UNK         0.0235 
     51 CB         27.2132   -1.4969  -11.2901 C.3       8 UNK        -0.2000 
     52 C          28.8886    0.3953  -11.5267 C.2       8 UNK         0.4941 
     53 O          29.4007    0.6782  -12.6110 O.2       8 UNK        -0.5273 
     54 N          29.5511    0.4130  -10.3632 N.am      9 UNK        -0.4262 
     55 CA         30.9464    0.8104  -10.2013 C.3       9 UNK         0.0264 
     56 CB         31.8834   -0.3641  -10.5412 C.3       9 UNK        -0.1955 
     57 C          31.1559    1.2840   -8.7611 C.2       9 UNK         0.5031 
     58 O          30.9447    0.5048   -7.8304 O.2       9 UNK        -0.5390 
     59 N          31.5900    2.5388   -8.5924 N.am      10 UNK        -0.4204 
     60 CA         31.8480    3.1736   -7.2969 C.3       10 UNK         0.0237 
     61 CB         31.8034    4.7030   -7.4727 C.3       10 UNK        -0.1985 
     62 C          33.1684    2.6840   -6.6700 C.2       10 UNK         0.4970 
     63 O          34.1222    3.4554   -6.5520 O.2       10 UNK        -0.4914 
     64 N          33.2014    1.3998   -6.3000 N.am      11 UNK        -0.4285 
     65 CA         34.3408    0.7149   -5.6712 C.3       11 UNK         0.1007 
     66 C          34.6508    1.1317   -4.2016 C.2       11 UNK         0.5703 
     67 N          33.8054    1.9079   -3.5332 N.am      11 UNK        -0.7361 
     68 O          35.6901    0.7554   -3.6644 O.2       11 UNK        -0.4986 
     69 C69        34.2338   -0.8240   -5.8411 C.3       12 UNK        -0.0947 
     70 S70        32.7447   -1.5462   -5.0739 S.3       12 UNK        -0.2240 
     71 C71        32.9682   -3.2944   -5.5149 C.3       12 UNK         0.0194 
     72 H72        30.3589    1.1540   -1.8833 H         1 UNK         0.0906 
     73 H73        31.2953    0.1574   -0.7659 H         1 UNK         0.0906 
     74 H74        31.6939    0.1674   -2.4854 H         1 UNK         0.0906 
     75 H75        30.2832   -1.7741   -0.2108 H         1 UNK         0.3140 
     76 H76        29.0237   -3.4533   -2.1976 H         1 UNK         0.1085 
     77 H77        28.8399   -5.1117   -0.3781 H         1 UNK         0.0836 
     78 H78        29.2632   -3.9175    0.8163 H         1 UNK         0.0836 
     79 H79        32.1236   -6.4961   -1.5596 H         1 UNK         0.0731 
     80 H80        30.4000   -6.6793   -1.3627 H         1 UNK         0.0731 
     81 H81        32.9249   -4.4637   -3.0572 H         1 UNK         0.1312 
     82 H82        30.5752   -3.9966   -6.6082 H         1 UNK         0.1406 
     83 H83        29.0237   -6.2371   -3.2940 H         1 UNK         0.1631 
     84 H84        28.0828   -6.4352   -5.7169 H         1 UNK         0.0717 
     85 H85        28.5033   -5.1904   -6.8658 H         1 UNK         0.0717 
     86 H86        27.5338   -2.0948   -4.6237 H         1 UNK         0.0934 
     87 H87        28.6560   -2.6982   -5.7890 H         1 UNK         0.0934 
     88 H88        26.8545   -2.6197   -7.5597 H         1 UNK         0.0739 
     89 H89        25.1671   -1.7594   -5.3716 H         1 UNK         0.3093 
     90 H90        22.5810   -0.4062   -7.3937 H         1 UNK         0.0818 
     91 H91        21.1888   -2.1181   -6.2530 H         1 UNK         0.0819 
     92 H92        22.1345   -2.8624   -7.5304 H         1 UNK         0.0819 
     93 H93        22.6250   -3.0626   -5.8543 H         1 UNK         0.0819 
     94 H94        22.7685   -0.9189   -4.5866 H         1 UNK         0.3041 
     95 H95        24.4715    2.0782   -3.6814 H         1 UNK         0.0784 
     96 H96        22.0720    2.7298   -3.9514 H         1 UNK         0.0793 
     97 H97        21.5634    1.1931   -3.2651 H         1 UNK         0.0793 
     98 H98        22.4498    2.3565   -2.2787 H         1 UNK         0.0793 
     99 H99        23.4272    0.0000   -2.0694 H         1 UNK         0.3024 
    100 H100       25.1700   -1.2385   -0.8725 H         1 UNK         0.1171 
    101 H101       23.4965   -2.5086   -2.2930 H         1 UNK         0.0786 
    102 H102       24.6476   -3.6087   -1.5667 H         1 UNK         0.0786 
    103 H103       24.8107   -3.1640   -3.2614 H         1 UNK         0.0786 
    104 H104       27.4149   -1.5707   -2.6072 H         1 UNK         0.2977 
    105 H105       26.8500    0.1968   -5.3089 H         1 UNK         0.3127 
    106 H106       28.9715    1.6100   -6.4337 H         1 UNK         0.0770 
    107 H107       26.5003    2.6986   -4.9891 H         1 UNK         0.0814 
    108 H108       28.0199    3.5589   -5.2035 H         1 UNK         0.0814 
    109 H109       27.9699    2.1042   -4.2171 H         1 UNK         0.0814 
    110 H110       25.5499    1.6422   -7.4336 H         1 UNK         0.2983 
    111 H111       25.7549    3.7171   -9.3825 H         1 UNK         0.0947 
    112 H112       23.6007    2.7426  -10.2185 H         1 UNK         0.0806 
    113 H113       23.5850    2.9352   -8.4730 H         1 UNK         0.0806 
    114 H114       23.8270    1.3393   -9.1816 H         1 UNK         0.0806 
    115 H115       26.6899    0.3104   -9.5035 H         1 UNK         0.3000 
    116 H116       26.9569    0.2853  -12.4412 H         1 UNK         0.0850 
    117 H117       27.6789   -2.0496  -12.1070 H         1 UNK         0.0810 
    118 H118       26.1567   -1.7656  -11.2757 H         1 UNK         0.0810 
    119 H119       27.6587   -1.8545  -10.3619 H         1 UNK         0.0810 
    120 H120       29.0661    0.1506   -9.5031 H         1 UNK         0.3040 
    121 H121       31.1610    1.6394  -10.8793 H         1 UNK         0.0766 
    122 H122       31.7764   -0.6716  -11.5814 H         1 UNK         0.0812 
    123 H123       31.6810   -1.2325   -9.9127 H         1 UNK         0.0812 
    124 H124       32.9274   -0.0870  -10.3900 H         1 UNK         0.0812 
    125 H125       31.7662    3.1053   -9.4097 H         1 UNK         0.3205 
    126 H126       31.0438    2.9017   -6.6101 H         1 UNK         0.0754 
    127 H127       31.9706    5.2108   -6.5218 H         1 UNK         0.0769 
    128 H128       30.8310    5.0283   -7.8442 H         1 UNK         0.0769 
    129 H129       32.5650    5.0549   -8.1698 H         1 UNK         0.0769 
    130 H130       32.3833    0.8278   -6.4904 H         1 UNK         0.2981 
    131 H131       35.2242    1.0213   -6.2345 H         1 UNK         0.0541 
    132 H132       32.9555    2.2273   -3.9672 H         1 UNK         0.3459 
    133 H133       34.0266    2.1785   -2.5884 H         1 UNK         0.3459 
    134 H134       35.1167   -1.3188   -5.4321 H         1 UNK         0.0612 
    135 H135       34.2194   -1.0712   -6.9038 H         1 UNK         0.0612 
    136 H136       32.9685   -3.3970   -6.6012 H         1 UNK         0.0624 
    137 H137       33.9447   -3.6356   -5.1679 H         1 UNK         0.0624 
@<TRIPOS>BOND
     1    1    2 1    
     2    1   72 1    
     3    1   73 1    
     4    1   74 1    
     5    2    3 2    
     6    2    4 am   BACKBONE|DICT|INTERRES
     7    4    5 1    
     8    4   75 1    
     9    5    6 1    
    10    5   35 1    
    11    5   76 1    
    12    6    7 1    
    13    6   77 1    
    14    6   78 1    
    15    7    8 1    
    16    8    9 1    
    17    8   79 1    
    18    8   80 1    
    19    9   10 ar   
    20    9   14 ar   
    21   10   11 ar   
    22   10   81 1    
    23   11   12 ar   
    24   11   71 1    
    25   12   13 ar   
    26   12   82 1    
    27   13   14 ar   
    28   13   15 1    
    29   14   83 1    
    30   15   16 1    
    31   15   84 1    
    32   15   85 1    
    33   16   17 1    
    34   17   18 1    
    35   17   86 1    
    36   17   87 1    
    37   18   19 1    
    38   18   37 1    
    39   18   88 1    
    40   19   20 am   BACKBONE|DICT|INTERRES
    41   19   89 1    
    42   20   21 2    
    43   20   22 1    
    44   22   23 1    
    45   22   24 1    
    46   22   90 1    
    47   23   91 1    
    48   23   92 1    
    49   23   93 1    
    50   24   25 am   BACKBONE|DICT|INTERRES
    51   24   94 1    
    52   25   26 2    
    53   25   27 1    
    54   27   28 1    
    55   27   29 1    
    56   27   95 1    
    57   28   96 1    
    58   28   97 1    
    59   28   98 1    
    60   29   30 am   BACKBONE|DICT|INTERRES
    61   29   99 1    
    62   30   31 2    
    63   30   32 1    
    64   32   33 1    
    65   32   34 1    
    66   32  100 1    
    67   33  101 1    
    68   33  102 1    
    69   33  103 1    
    70   34   35 am   BACKBONE|DICT|INTERRES
    71   34  104 1    
    72   35   36 2    
    73   37   38 2    
    74   37   39 am   BACKBONE|DICT|INTERRES
    75   39   40 1    
    76   39  105 1    
    77   40   41 1    
    78   40   42 1    
    79   40  106 1    
    80   41  107 1    
    81   41  108 1    
    82   41  109 1    
    83   42   43 2    
    84   42   44 am   BACKBONE|DICT|INTERRES
    85   44   45 1    
    86   44  110 1    
    87   45   46 1    
    88   45   47 1    
    89   45  111 1    
    90   46  112 1    
    91   46  113 1    
    92   46  114 1    
    93   47   48 2    
    94   47   49 am   BACKBONE|DICT|INTERRES
    95   49   50 1    
    96   49  115 1    
    97   50   51 1    
    98   50   52 1    
    99   50  116 1    
   100   51  117 1    
   101   51  118 1    
   102   51  119 1    
   103   52   53 2    
   104   52   54 am   BACKBONE|DICT|INTERRES
   105   54   55 1    
   106   54  120 1    
   107   55   56 1    
   108   55   57 1    
   109   55  121 1    
   110   56  122 1    
   111   56  123 1    
   112   56  124 1    
   113   57   58 2    
   114   57   59 am   BACKBONE|DICT|INTERRES
   115   59   60 1    
   116   59  125 1    
   117   60   61 1    
   118   60   62 1    
   119   60  126 1    
   120   61  127 1    
   121   61  128 1    
   122   61  129 1    
   123   62   63 2    
   124   62   64 am   BACKBONE|DICT|INTERRES
   125   64   65 1    
   126   64  130 1    
   127   65   66 1    
   128   65   69 1    
   129   65  131 1    
   130   66   67 am   BACKBONE|DICT|INTERRES
   131   66   68 2    
   132   67  132 1    
   133   67  133 1    
   134   69   70 1    
   135   69  134 1    
   136   69  135 1    
   137   70   71 1    
   138   71  136 1    
   139   71  137 1    
@<TRIPOS>SUBSTRUCTURE
     1 UNK         1 GROUP             0       ****    0 ROOT    
