@<TRIPOS>MOLECULE
3R137
137   139    1
SMALL
USER_CHARGES


@<TRIPOS>ATOM
      1 CA         24.6940   -5.7727   -5.1111 C.3       0 UNK        -0.2020 
      2 C          25.0691   -5.1286   -3.7855 C.2       0 UNK         0.4855 
      3 O          24.2064   -4.5623   -3.1136 O.2       0 UNK        -0.5197 
      4 N          26.3527   -5.1944   -3.4076 N.am      1 UNK        -0.4892 
      5 CA         26.9032   -4.5931   -2.1881 C.3       1 UNK         0.0835 
      6 C6         28.3729   -5.0203   -1.9742 C.3       12 UNK        -0.0855 
      7 S7         29.0112   -4.5491   -0.3291 S.3       12 UNK        -0.2931 
      8 C8         30.7670   -4.2232   -0.6880 C.3       12 UNK         0.0378 
      9 C9         30.9649   -3.0346   -1.6198 C.ar      12 UNK        -0.0802 
     10 C10        31.3585   -3.2390   -2.9447 C.ar      12 UNK        -0.0944 
     11 C11        31.5806   -2.1544   -3.7966 C.ar      12 UNK        -0.0787 
     12 C12        31.4055   -0.8535   -3.3147 C.ar      12 UNK        -0.0862 
     13 C13        30.9894   -0.6328   -1.9954 C.ar      12 UNK        -0.0733 
     14 C14        30.7780   -1.7304   -1.1533 C.ar      12 UNK        -0.0832 
     15 C15        30.7801    0.7788   -1.4486 C.3       12 UNK         0.0240 
     16 S16        29.9740    1.9379   -2.6087 S.3       12 UNK        -0.2522 
     17 C17        28.4243    1.0710   -3.0266 C.3       12 UNK        -0.0967 
     18 CA         28.1869    1.0476   -4.5603 C.3       5 UNK         0.0660 
     19 N          27.5603   -0.1978   -5.0048 N.am      5 UNK        -0.4015 
     20 C          27.3615   -0.5456   -6.2843 C.2       4 UNK         0.4946 
     21 O          27.7842    0.0952   -7.2479 O.2       4 UNK        -0.5353 
     22 CA         26.4985   -1.7942   -6.5265 C.3       4 UNK         0.0277 
     23 CB         27.3511   -3.0733   -6.4876 C.3       4 UNK        -0.1981 
     24 N          25.3996   -1.8873   -5.5591 N.am      4 UNK        -0.4209 
     25 C          24.3398   -1.0636   -5.5466 C.2       3 UNK         0.4942 
     26 O          24.1434   -0.1942   -6.3927 O.2       3 UNK        -0.5208 
     27 CA         23.3589   -1.1894   -4.3700 C.3       3 UNK         0.0250 
     28 CB         22.2809   -2.2436   -4.6656 C.3       3 UNK        -0.1990 
     29 N          24.0371   -1.4930   -3.1072 N.am      3 UNK        -0.4232 
     30 C          24.8202   -0.6164   -2.4577 C.2       2 UNK         0.4993 
     31 O          25.0093    0.5378   -2.8391 O.2       2 UNK        -0.5286 
     32 CA         25.5666   -1.1129   -1.2069 C.3       2 UNK         0.0209 
     33 CB         24.7261   -0.8650    0.0551 C.3       2 UNK        -0.1931 
     34 N          25.9481   -2.5259   -1.2724 N.am      2 UNK        -0.4546 
     35 C          26.7310   -3.0598   -2.2197 C.2       1 UNK         0.5154 
     36 O          27.2464   -2.4032   -3.1278 O.2       1 UNK        -0.5181 
     37 C          27.3936    2.2830   -5.0393 C.2       5 UNK         0.5014 
     38 O          27.9726    3.1684   -5.6695 O.2       5 UNK        -0.5248 
     39 N          26.0771    2.2975   -4.7755 N.am      6 UNK        -0.4434 
     40 CA         25.1434    3.3510   -5.1891 C.3       6 UNK         0.0363 
     41 CB         23.7654    3.0940   -4.5595 C.3       6 UNK        -0.1936 
     42 C          25.0174    3.5006   -6.7154 C.2       6 UNK         0.5081 
     43 O          24.9227    4.6262   -7.2050 O.2       6 UNK        -0.5248 
     44 N          25.0489    2.3751   -7.4423 N.am      7 UNK        -0.4718 
     45 CA         25.0687    2.3248   -8.9082 C.3       7 UNK         0.0273 
     46 CB         24.7044    0.9032   -9.3673 C.3       7 UNK        -0.1935 
     47 C          26.4113    2.7559   -9.5302 C.2       7 UNK         0.5018 
     48 O          26.4623    2.9439  -10.7466 O.2       7 UNK        -0.5186 
     49 N          27.4594    2.8938   -8.7034 N.am      8 UNK        -0.4240 
     50 CA         28.8411    3.2289   -9.0553 C.3       8 UNK         0.0235 
     51 CB         28.9398    4.6625   -9.6206 C.3       8 UNK        -0.2000 
     52 C          29.4801    2.1648   -9.9651 C.2       8 UNK         0.4941 
     53 O          30.0108    2.4955  -11.0287 O.2       8 UNK        -0.5273 
     54 N          29.4078    0.8989   -9.5274 N.am      9 UNK        -0.4262 
     55 CA         30.0568   -0.2499  -10.1657 C.3       9 UNK         0.0264 
     56 CB         29.6436   -1.5303   -9.4205 C.3       9 UNK        -0.1955 
     57 C          31.5918   -0.1219  -10.1939 C.2       9 UNK         0.5031 
     58 O          32.1702    0.5686   -9.3503 O.2       9 UNK        -0.5390 
     59 N          32.2247   -0.8359  -11.1367 N.am      10 UNK        -0.4204 
     60 CA         33.6696   -0.8211  -11.4172 C.3       10 UNK         0.0237 
     61 CB         33.9554   -1.7438  -12.6141 C.3       10 UNK        -0.1985 
     62 C          34.5890   -1.1817  -10.2324 C.2       10 UNK         0.4970 
     63 O          35.7695   -0.8317  -10.2641 O.2       10 UNK        -0.4914 
     64 N          34.0382   -1.8528   -9.2134 N.am      11 UNK        -0.4285 
     65 CA         34.6716   -2.0879   -7.9079 C.3       11 UNK         0.1007 
     66 C          34.9516   -0.7761   -7.1046 C.2       11 UNK         0.5703 
     67 N          34.2189    0.3104   -7.3263 N.am      11 UNK        -0.7361 
     68 O          35.8725   -0.7364   -6.2917 O.2       11 UNK        -0.4986 
     69 C69        33.9034   -3.2148   -7.1367 C.3       12 UNK        -0.0947 
     70 S70        33.6918   -3.0678   -5.3260 S.3       12 UNK        -0.2240 
     71 C71        32.0022   -2.3980   -5.2371 C.3       12 UNK         0.0194 
     72 H72        24.3376   -5.0159   -5.8094 H         1 UNK         0.0906 
     73 H73        25.5388   -6.2865   -5.5692 H         1 UNK         0.0906 
     74 H74        23.8966   -6.5000   -4.9611 H         1 UNK         0.0906 
     75 H75        27.0216   -5.6557   -4.0075 H         1 UNK         0.3140 
     76 H76        26.3194   -4.9891   -1.3539 H         1 UNK         0.1085 
     77 H77        28.4615   -6.1047   -2.0569 H         1 UNK         0.0836 
     78 H78        29.0000   -4.6079   -2.7648 H         1 UNK         0.0836 
     79 H79        31.2188   -5.1239   -1.1069 H         1 UNK         0.0731 
     80 H80        31.2881   -4.0324    0.2513 H         1 UNK         0.0731 
     81 H81        31.5037   -4.2446   -3.3155 H         1 UNK         0.1312 
     82 H82        31.5837   -0.0121   -3.9701 H         1 UNK         0.1406 
     83 H83        30.4686   -1.5746   -0.1285 H         1 UNK         0.1631 
     84 H84        31.7507    1.1885   -1.1664 H         1 UNK         0.0717 
     85 H85        30.1822    0.7479   -0.5363 H         1 UNK         0.0717 
     86 H86        28.4816    0.0524   -2.6414 H         1 UNK         0.0934 
     87 H87        27.5974    1.5340   -2.4843 H         1 UNK         0.0934 
     88 H88        29.1563    1.0740   -5.0636 H         1 UNK         0.0739 
     89 H89        27.2563   -0.8431   -4.2814 H         1 UNK         0.3093 
     90 H90        26.0651   -1.7087   -7.5251 H         1 UNK         0.0818 
     91 H91        27.8343   -3.2177   -5.5214 H         1 UNK         0.0819 
     92 H92        26.7499   -3.9572   -6.6992 H         1 UNK         0.0819 
     93 H93        28.1410   -3.0351   -7.2382 H         1 UNK         0.0819 
     94 H94        25.5252   -2.5251   -4.7860 H         1 UNK         0.3041 
     95 H95        22.8572   -0.2261   -4.2551 H         1 UNK         0.0784 
     96 H96        21.7128   -1.9752   -5.5573 H         1 UNK         0.0793 
     97 H97        22.7094   -3.2298   -4.8417 H         1 UNK         0.0793 
     98 H98        21.5709   -2.3279   -3.8428 H         1 UNK         0.0793 
     99 H99        23.9660   -2.4451   -2.7640 H         1 UNK         0.3024 
    100 H100       26.4857   -0.5288   -1.1260 H         1 UNK         0.1171 
    101 H101       24.4477    0.1868    0.1373 H         1 UNK         0.0786 
    102 H102       25.2800   -1.1223    0.9582 H         1 UNK         0.0786 
    103 H103       23.8035   -1.4469    0.0479 H         1 UNK         0.0786 
    104 H104       25.5446   -3.1349   -0.5748 H         1 UNK         0.2977 
    105 H105       25.6856    1.5518   -4.2010 H         1 UNK         0.3127 
    106 H106       25.5253    4.2961   -4.7978 H         1 UNK         0.0770 
    107 H107       23.3398    2.1484   -4.8969 H         1 UNK         0.0814 
    108 H108       23.0607    3.8831   -4.8253 H         1 UNK         0.0814 
    109 H109       23.8248    3.0650   -3.4714 H         1 UNK         0.0814 
    110 H110       25.0384    1.4804   -6.9603 H         1 UNK         0.2983 
    111 H111       24.3061    3.0110   -9.2830 H         1 UNK         0.0947 
    112 H112       24.6729    0.8366  -10.4556 H         1 UNK         0.0806 
    113 H113       23.7231    0.6054   -8.9977 H         1 UNK         0.0806 
    114 H114       25.4327    0.1714   -9.0165 H         1 UNK         0.0806 
    115 H115       27.3063    2.6984   -7.7208 H         1 UNK         0.3000 
    116 H116       29.4052    3.2072   -8.1215 H         1 UNK         0.0850 
    117 H117       29.9810    4.9475   -9.7756 H         1 UNK         0.0810 
    118 H118       28.5034    5.3886   -8.9347 H         1 UNK         0.0810 
    119 H119       28.4315    4.7592  -10.5804 H         1 UNK         0.0810 
    120 H120       28.9122    0.7103   -8.6581 H         1 UNK         0.3040 
    121 H121       29.6944   -0.3045  -11.1942 H         1 UNK         0.0766 
    122 H122       28.5605   -1.6557   -9.4236 H         1 UNK         0.0812 
    123 H123       29.9742   -1.5130   -8.3809 H         1 UNK         0.0812 
    124 H124       30.0713   -2.4189   -9.8862 H         1 UNK         0.0812 
    125 H125       31.6622   -1.3923  -11.7650 H         1 UNK         0.3205 
    126 H126       33.9245    0.2002  -11.7074 H         1 UNK         0.0754 
    127 H127       35.0151   -1.7328  -12.8739 H         1 UNK         0.0769 
    128 H128       33.4060   -1.4276  -13.5012 H         1 UNK         0.0769 
    129 H129       33.6837   -2.7782  -12.3995 H         1 UNK         0.0769 
    130 H130       33.0603   -2.0866   -9.2805 H         1 UNK         0.2981 
    131 H131       35.6641   -2.4887   -8.1242 H         1 UNK         0.0541 
    132 H132       33.4816    0.3172   -8.0272 H         1 UNK         0.3459 
    133 H133       34.4226    1.1508   -6.8107 H         1 UNK         0.3459 
    134 H134       32.9061   -3.3504   -7.5586 H         1 UNK         0.0612 
    135 H135       34.4048   -4.1661   -7.3203 H         1 UNK         0.0612 
    136 H136       31.3064   -3.0985   -5.7014 H         1 UNK         0.0624 
    137 H137       31.9509   -1.4749   -5.8172 H         1 UNK         0.0624 
@<TRIPOS>BOND
     1    1    2 1    
     2    1   72 1    
     3    1   73 1    
     4    1   74 1    
     5    2    3 2    
     6    2    4 am   BACKBONE|DICT|INTERRES
     7    4    5 1    
     8    4   75 1    
     9    5    6 1    
    10    5   35 1    
    11    5   76 1    
    12    6    7 1    
    13    6   77 1    
    14    6   78 1    
    15    7    8 1    
    16    8    9 1    
    17    8   79 1    
    18    8   80 1    
    19    9   10 ar   
    20    9   14 ar   
    21   10   11 ar   
    22   10   81 1    
    23   11   12 ar   
    24   11   71 1    
    25   12   13 ar   
    26   12   82 1    
    27   13   14 ar   
    28   13   15 1    
    29   14   83 1    
    30   15   16 1    
    31   15   84 1    
    32   15   85 1    
    33   16   17 1    
    34   17   18 1    
    35   17   86 1    
    36   17   87 1    
    37   18   19 1    
    38   18   37 1    
    39   18   88 1    
    40   19   20 am   BACKBONE|DICT|INTERRES
    41   19   89 1    
    42   20   21 2    
    43   20   22 1    
    44   22   23 1    
    45   22   24 1    
    46   22   90 1    
    47   23   91 1    
    48   23   92 1    
    49   23   93 1    
    50   24   25 am   BACKBONE|DICT|INTERRES
    51   24   94 1    
    52   25   26 2    
    53   25   27 1    
    54   27   28 1    
    55   27   29 1    
    56   27   95 1    
    57   28   96 1    
    58   28   97 1    
    59   28   98 1    
    60   29   30 am   BACKBONE|DICT|INTERRES
    61   29   99 1    
    62   30   31 2    
    63   30   32 1    
    64   32   33 1    
    65   32   34 1    
    66   32  100 1    
    67   33  101 1    
    68   33  102 1    
    69   33  103 1    
    70   34   35 am   BACKBONE|DICT|INTERRES
    71   34  104 1    
    72   35   36 2    
    73   37   38 2    
    74   37   39 am   BACKBONE|DICT|INTERRES
    75   39   40 1    
    76   39  105 1    
    77   40   41 1    
    78   40   42 1    
    79   40  106 1    
    80   41  107 1    
    81   41  108 1    
    82   41  109 1    
    83   42   43 2    
    84   42   44 am   BACKBONE|DICT|INTERRES
    85   44   45 1    
    86   44  110 1    
    87   45   46 1    
    88   45   47 1    
    89   45  111 1    
    90   46  112 1    
    91   46  113 1    
    92   46  114 1    
    93   47   48 2    
    94   47   49 am   BACKBONE|DICT|INTERRES
    95   49   50 1    
    96   49  115 1    
    97   50   51 1    
    98   50   52 1    
    99   50  116 1    
   100   51  117 1    
   101   51  118 1    
   102   51  119 1    
   103   52   53 2    
   104   52   54 am   BACKBONE|DICT|INTERRES
   105   54   55 1    
   106   54  120 1    
   107   55   56 1    
   108   55   57 1    
   109   55  121 1    
   110   56  122 1    
   111   56  123 1    
   112   56  124 1    
   113   57   58 2    
   114   57   59 am   BACKBONE|DICT|INTERRES
   115   59   60 1    
   116   59  125 1    
   117   60   61 1    
   118   60   62 1    
   119   60  126 1    
   120   61  127 1    
   121   61  128 1    
   122   61  129 1    
   123   62   63 2    
   124   62   64 am   BACKBONE|DICT|INTERRES
   125   64   65 1    
   126   64  130 1    
   127   65   66 1    
   128   65   69 1    
   129   65  131 1    
   130   66   67 am   BACKBONE|DICT|INTERRES
   131   66   68 2    
   132   67  132 1    
   133   67  133 1    
   134   69   70 1    
   135   69  134 1    
   136   69  135 1    
   137   70   71 1    
   138   71  136 1    
   139   71  137 1    
@<TRIPOS>SUBSTRUCTURE
     1 UNK         1 GROUP             0       ****    0 ROOT    
