@<TRIPOS>MOLECULE
3R137
137   139    1
SMALL
USER_CHARGES


@<TRIPOS>ATOM
      1 CA         32.8729   -6.8018   -4.2142 C.3       0 UNK        -0.2020 
      2 C          31.5570   -6.3367   -3.6085 C.2       0 UNK         0.4855 
      3 O          30.7970   -7.1644   -3.1068 O.2       0 UNK        -0.5197 
      4 N          31.2971   -5.0218   -3.6462 N.am      1 UNK        -0.4892 
      5 CA         30.0918   -4.3512   -3.1370 C.3       1 UNK         0.0835 
      6 C6         30.2160   -2.8160   -3.2995 C.3       12 UNK        -0.0855 
      7 S7         28.8002   -1.8796   -2.6378 S.3       12 UNK        -0.2931 
      8 C8         28.4211   -0.7764   -4.0329 C.3       12 UNK         0.0378 
      9 C9         29.2872    0.4696   -4.0024 C.ar      12 UNK        -0.0802 
     10 C10        30.3422    0.6376   -4.9014 C.ar      12 UNK        -0.0944 
     11 C11        31.1264    1.7951   -4.8624 C.ar      12 UNK        -0.0787 
     12 C12        30.8203    2.8038   -3.9420 C.ar      12 UNK        -0.0862 
     13 C13        29.7539    2.6555   -3.0495 C.ar      12 UNK        -0.0733 
     14 C14        29.0107    1.4714   -3.0709 C.ar      12 UNK        -0.0832 
     15 C15        29.4257    3.7673   -2.0561 C.3       12 UNK         0.0240 
     16 S16        27.6324    4.0430   -1.8360 S.3       12 UNK        -0.2522 
     17 C17        27.1534    4.8100   -3.4229 C.3       12 UNK        -0.0967 
     18 CA         26.7772    3.7998   -4.5404 C.3       5 UNK         0.0660 
     19 N          25.8665    2.7407   -4.0725 N.am      5 UNK        -0.4015 
     20 C          25.4803    1.6751   -4.7875 C.2       4 UNK         0.4946 
     21 O          25.7428    1.5223   -5.9846 O.2       4 UNK        -0.5353 
     22 CA         24.6420    0.6158   -4.0588 C.3       4 UNK         0.0277 
     23 CB         23.2044    1.1174   -3.8407 C.3       4 UNK        -0.1981 
     24 N          24.6037   -0.5881   -4.8876 N.am      4 UNK        -0.4209 
     25 C          24.9273   -1.8303   -4.5118 C.2       3 UNK         0.4942 
     26 O          25.2115   -2.1457   -3.3561 O.2       3 UNK        -0.5208 
     27 CA         24.9448   -2.9068   -5.6094 C.3       3 UNK         0.0250 
     28 CB         24.7899   -2.3549   -7.0459 C.3       3 UNK        -0.1990 
     29 N          26.1656   -3.7111   -5.5029 N.am      3 UNK        -0.4232 
     30 C          26.2750   -4.9767   -5.9273 C.2       2 UNK         0.4993 
     31 O          25.3421   -5.5965   -6.4415 O.2       2 UNK        -0.5286 
     32 CA         27.6320   -5.6911   -5.7807 C.3       2 UNK         0.0209 
     33 CB         28.1931   -6.1145   -7.1493 C.3       2 UNK        -0.1931 
     34 N          28.6617   -4.9328   -5.0616 N.am      2 UNK        -0.4546 
     35 C          28.7875   -4.9407   -3.7275 C.2       1 UNK         0.5154 
     36 O          27.9528   -5.4440   -2.9728 O.2       1 UNK        -0.5181 
     37 C          26.2870    4.5613   -5.7925 C.2       5 UNK         0.5014 
     38 O          27.1142    5.1136   -6.5179 O.2       5 UNK        -0.5248 
     39 N          24.9670    4.5756   -6.0324 N.am      6 UNK        -0.4434 
     40 CA         24.3458    5.1402   -7.2337 C.3       6 UNK         0.0363 
     41 CB         22.8273    5.2455   -7.0187 C.3       6 UNK        -0.1936 
     42 C          24.6537    4.3340   -8.5102 C.2       6 UNK         0.5081 
     43 O          24.7350    4.9249   -9.5875 O.2       6 UNK        -0.5248 
     44 N          24.8198    3.0117   -8.3699 N.am      7 UNK        -0.4718 
     45 CA         25.2312    2.1067   -9.4455 C.3       7 UNK         0.0273 
     46 CB         24.5119    0.7590   -9.2782 C.3       7 UNK        -0.1935 
     47 C          26.7550    1.9099   -9.4501 C.2       7 UNK         0.5018 
     48 O          27.3475    1.8314  -10.5264 O.2       7 UNK        -0.5186 
     49 N          27.3495    1.8446   -8.2481 N.am      8 UNK        -0.4240 
     50 CA         28.7810    1.7099   -7.9569 C.3       8 UNK         0.0235 
     51 CB         29.5522    2.9645   -8.4197 C.3       8 UNK        -0.2000 
     52 C          29.3974    0.3952   -8.4799 C.2       8 UNK         0.4941 
     53 O          30.5591    0.3813   -8.8911 O.2       8 UNK        -0.5273 
     54 N          28.6065   -0.6871   -8.4692 N.am      9 UNK        -0.4262 
     55 CA         28.9887   -1.9987   -8.9935 C.3       9 UNK         0.0264 
     56 CB         27.7318   -2.8639   -9.1657 C.3       9 UNK        -0.1955 
     57 C          30.0083   -2.7060   -8.0875 C.2       9 UNK         0.5031 
     58 O          29.8032   -2.7738   -6.8715 O.2       9 UNK        -0.5390 
     59 N          31.0699   -3.2437   -8.7034 N.am      10 UNK        -0.4204 
     60 CA         32.1986   -3.9958   -8.1296 C.3       10 UNK         0.0237 
     61 CB         31.7285   -5.3004   -7.4598 C.3       10 UNK        -0.1985 
     62 C          33.1128   -3.1890   -7.1884 C.2       10 UNK         0.4970 
     63 O          34.3333   -3.3078   -7.3001 O.2       10 UNK        -0.4914 
     64 N          32.5180   -2.3796   -6.3057 N.am      11 UNK        -0.4285 
     65 CA         33.1890   -1.5047   -5.3345 C.3       11 UNK         0.1007 
     66 C          34.0170   -2.2800   -4.2683 C.2       11 UNK         0.5703 
     67 N          34.9982   -1.6535   -3.6341 N.am      11 UNK        -0.7361 
     68 O          33.7253   -3.4348   -3.9629 O.2       11 UNK        -0.4986 
     69 C69        33.9344   -0.3344   -6.0433 C.3       12 UNK        -0.0947 
     70 S70        33.8271    1.2444   -5.1354 S.3       12 UNK        -0.2240 
     71 C71        32.2989    1.9684   -5.8168 C.3       12 UNK         0.0194 
     72 H72        33.4120   -5.9881   -4.6987 H         1 UNK         0.0906 
     73 H73        33.5152   -7.2199   -3.4396 H         1 UNK         0.0906 
     74 H74        32.6898   -7.5750   -4.9600 H         1 UNK         0.0906 
     75 H75        32.0334   -4.4071   -3.9822 H         1 UNK         0.3140 
     76 H76        30.0598   -4.5594   -2.0652 H         1 UNK         0.1085 
     77 H77        30.3642   -2.5628   -4.3478 H         1 UNK         0.0836 
     78 H78        31.1090   -2.4629   -2.7814 H         1 UNK         0.0836 
     79 H79        27.3806   -0.4712   -3.9525 H         1 UNK         0.0731 
     80 H80        28.5093   -1.3036   -4.9839 H         1 UNK         0.0731 
     81 H81        30.5498   -0.1300   -5.6335 H         1 UNK         0.1312 
     82 H82        31.4180    3.7049   -3.9194 H         1 UNK         0.1406 
     83 H83        28.1990    1.3311   -2.3704 H         1 UNK         0.1631 
     84 H84        29.8936    4.7064   -2.3554 H         1 UNK         0.0717 
     85 H85        29.8567    3.5017   -1.0901 H         1 UNK         0.0717 
     86 H86        26.3098    5.4711   -3.2137 H         1 UNK         0.0934 
     87 H87        27.9644    5.4607   -3.7568 H         1 UNK         0.0934 
     88 H88        27.6928    3.2934   -4.8508 H         1 UNK         0.0739 
     89 H89        25.6020    2.8000   -3.0993 H         1 UNK         0.3093 
     90 H90        25.1105    0.4053   -3.0948 H         1 UNK         0.0818 
     91 H91        22.7188    1.3787   -4.7821 H         1 UNK         0.0819 
     92 H92        22.5938    0.3575   -3.3526 H         1 UNK         0.0819 
     93 H93        23.1837    2.0024   -3.2037 H         1 UNK         0.0819 
     94 H94        24.4690   -0.4072   -5.8727 H         1 UNK         0.3041 
     95 H95        24.0873   -3.5501   -5.4005 H         1 UNK         0.0784 
     96 H96        23.8433   -1.8280   -7.1724 H         1 UNK         0.0793 
     97 H97        25.5985   -1.6706   -7.3027 H         1 UNK         0.0793 
     98 H98        24.7926   -3.1594   -7.7816 H         1 UNK         0.0793 
     99 H99        26.9441   -3.2895   -5.0154 H         1 UNK         0.3024 
    100 H100       27.4243   -6.6080   -5.2235 H         1 UNK         0.1171 
    101 H101       29.0535   -6.7729   -7.0314 H         1 UNK         0.0786 
    102 H102       27.4513   -6.6622   -7.7321 H         1 UNK         0.0786 
    103 H103       28.5065   -5.2577   -7.7424 H         1 UNK         0.0786 
    104 H104       29.3305   -4.4186   -5.6242 H         1 UNK         0.2977 
    105 H105       24.3551    4.1165   -5.3741 H         1 UNK         0.3127 
    106 H106       24.7413    6.1482   -7.3775 H         1 UNK         0.0770 
    107 H107       22.3725    4.2679   -6.8534 H         1 UNK         0.0814 
    108 H108       22.3410    5.6871   -7.8898 H         1 UNK         0.0814 
    109 H109       22.5895    5.8775   -6.1629 H         1 UNK         0.0814 
    110 H110       24.7897    2.6167   -7.4371 H         1 UNK         0.2983 
    111 H111       24.9466    2.5238  -10.4143 H         1 UNK         0.0947 
    112 H112       24.8313    0.0451  -10.0389 H         1 UNK         0.0806 
    113 H113       23.4322    0.8743   -9.3745 H         1 UNK         0.0806 
    114 H114       24.7135    0.3155   -8.3045 H         1 UNK         0.0806 
    115 H115       26.7449    1.8545   -7.4278 H         1 UNK         0.3000 
    116 H116       28.8480    1.6710   -6.8709 H         1 UNK         0.0850 
    117 H117       30.5892    2.9368   -8.0864 H         1 UNK         0.0810 
    118 H118       29.1088    3.8733   -8.0130 H         1 UNK         0.0810 
    119 H119       29.5641    3.0538   -9.5063 H         1 UNK         0.0810 
    120 H120       27.6775   -0.5993   -8.0878 H         1 UNK         0.3040 
    121 H121       29.4307   -1.8441   -9.9803 H         1 UNK         0.0766 
    122 H122       26.9713   -2.3558   -9.7591 H         1 UNK         0.0812 
    123 H123       27.2924   -3.1267   -8.2043 H         1 UNK         0.0812 
    124 H124       27.9696   -3.7968   -9.6783 H         1 UNK         0.0812 
    125 H125       31.1392   -3.0959   -9.7012 H         1 UNK         0.3205 
    126 H126       32.8162   -4.2797   -8.9834 H         1 UNK         0.0754 
    127 H127       31.1169   -5.1115   -6.5790 H         1 UNK         0.0769 
    128 H128       32.5812   -5.9004   -7.1403 H         1 UNK         0.0769 
    129 H129       31.1472   -5.9109   -8.1504 H         1 UNK         0.0769 
    130 H130       31.5014   -2.3774   -6.3036 H         1 UNK         0.2981 
    131 H131       32.3759   -1.0851   -4.7486 H         1 UNK         0.0541 
    132 H132       35.2142   -0.6921   -3.8491 H         1 UNK         0.3459 
    133 H133       35.5194   -2.1447   -2.9252 H         1 UNK         0.3459 
    134 H134       34.9848   -0.5809   -6.2072 H         1 UNK         0.0612 
    135 H135       33.5294   -0.1697   -7.0430 H         1 UNK         0.0612 
    136 H136       32.0631    1.5291   -6.7862 H         1 UNK         0.0624 
    137 H137       32.4712    3.0294   -6.0034 H         1 UNK         0.0624 
@<TRIPOS>BOND
     1    1    2 1    
     2    1   72 1    
     3    1   73 1    
     4    1   74 1    
     5    2    3 2    
     6    2    4 am   BACKBONE|DICT|INTERRES
     7    4    5 1    
     8    4   75 1    
     9    5    6 1    
    10    5   35 1    
    11    5   76 1    
    12    6    7 1    
    13    6   77 1    
    14    6   78 1    
    15    7    8 1    
    16    8    9 1    
    17    8   79 1    
    18    8   80 1    
    19    9   10 ar   
    20    9   14 ar   
    21   10   11 ar   
    22   10   81 1    
    23   11   12 ar   
    24   11   71 1    
    25   12   13 ar   
    26   12   82 1    
    27   13   14 ar   
    28   13   15 1    
    29   14   83 1    
    30   15   16 1    
    31   15   84 1    
    32   15   85 1    
    33   16   17 1    
    34   17   18 1    
    35   17   86 1    
    36   17   87 1    
    37   18   19 1    
    38   18   37 1    
    39   18   88 1    
    40   19   20 am   BACKBONE|DICT|INTERRES
    41   19   89 1    
    42   20   21 2    
    43   20   22 1    
    44   22   23 1    
    45   22   24 1    
    46   22   90 1    
    47   23   91 1    
    48   23   92 1    
    49   23   93 1    
    50   24   25 am   BACKBONE|DICT|INTERRES
    51   24   94 1    
    52   25   26 2    
    53   25   27 1    
    54   27   28 1    
    55   27   29 1    
    56   27   95 1    
    57   28   96 1    
    58   28   97 1    
    59   28   98 1    
    60   29   30 am   BACKBONE|DICT|INTERRES
    61   29   99 1    
    62   30   31 2    
    63   30   32 1    
    64   32   33 1    
    65   32   34 1    
    66   32  100 1    
    67   33  101 1    
    68   33  102 1    
    69   33  103 1    
    70   34   35 am   BACKBONE|DICT|INTERRES
    71   34  104 1    
    72   35   36 2    
    73   37   38 2    
    74   37   39 am   BACKBONE|DICT|INTERRES
    75   39   40 1    
    76   39  105 1    
    77   40   41 1    
    78   40   42 1    
    79   40  106 1    
    80   41  107 1    
    81   41  108 1    
    82   41  109 1    
    83   42   43 2    
    84   42   44 am   BACKBONE|DICT|INTERRES
    85   44   45 1    
    86   44  110 1    
    87   45   46 1    
    88   45   47 1    
    89   45  111 1    
    90   46  112 1    
    91   46  113 1    
    92   46  114 1    
    93   47   48 2    
    94   47   49 am   BACKBONE|DICT|INTERRES
    95   49   50 1    
    96   49  115 1    
    97   50   51 1    
    98   50   52 1    
    99   50  116 1    
   100   51  117 1    
   101   51  118 1    
   102   51  119 1    
   103   52   53 2    
   104   52   54 am   BACKBONE|DICT|INTERRES
   105   54   55 1    
   106   54  120 1    
   107   55   56 1    
   108   55   57 1    
   109   55  121 1    
   110   56  122 1    
   111   56  123 1    
   112   56  124 1    
   113   57   58 2    
   114   57   59 am   BACKBONE|DICT|INTERRES
   115   59   60 1    
   116   59  125 1    
   117   60   61 1    
   118   60   62 1    
   119   60  126 1    
   120   61  127 1    
   121   61  128 1    
   122   61  129 1    
   123   62   63 2    
   124   62   64 am   BACKBONE|DICT|INTERRES
   125   64   65 1    
   126   64  130 1    
   127   65   66 1    
   128   65   69 1    
   129   65  131 1    
   130   66   67 am   BACKBONE|DICT|INTERRES
   131   66   68 2    
   132   67  132 1    
   133   67  133 1    
   134   69   70 1    
   135   69  134 1    
   136   69  135 1    
   137   70   71 1    
   138   71  136 1    
   139   71  137 1    
@<TRIPOS>SUBSTRUCTURE
     1 UNK         1 GROUP             0       ****    0 ROOT    
