@<TRIPOS>MOLECULE
3R137
137   139    1
SMALL
USER_CHARGES


@<TRIPOS>ATOM
      1 CA         26.7264   -6.2540    1.8288 C.3       0 UNK        -0.2020 
      2 C          26.5230   -4.7467    1.8039 C.2       0 UNK         0.4855 
      3 O          25.5074   -4.2572    2.2986 O.2       0 UNK        -0.5197 
      4 N          27.4826   -4.0069    1.2336 N.am      1 UNK        -0.4892 
      5 CA         27.4509   -2.5457    1.0842 C.3       1 UNK         0.0835 
      6 C6         28.8533   -1.9610    0.7659 C.3       12 UNK        -0.0855 
      7 S7         29.7571   -2.8472   -0.5538 S.3       12 UNK        -0.2931 
      8 C8         29.5110   -1.7344   -1.9692 C.3       12 UNK         0.0378 
      9 C9         30.0346   -2.3641   -3.2503 C.ar      12 UNK        -0.0802 
     10 C10        31.2457   -1.9446   -3.8079 C.ar      12 UNK        -0.0944 
     11 C11        31.7371   -2.5344   -4.9821 C.ar      12 UNK        -0.0787 
     12 C12        30.9956   -3.5593   -5.5838 C.ar      12 UNK        -0.0862 
     13 C13        29.7901   -3.9991   -5.0262 C.ar      12 UNK        -0.0733 
     14 C14        29.3100   -3.3861   -3.8663 C.ar      12 UNK        -0.0832 
     15 C15        29.0449   -5.1853   -5.6283 C.3       12 UNK         0.0240 
     16 S16        28.0433   -4.7494   -7.0851 S.3       12 UNK        -0.2522 
     17 C17        26.7210   -3.7233   -6.3538 C.3       12 UNK        -0.0967 
     18 CA         26.4715   -2.4146   -7.1395 C.3       5 UNK         0.0660 
     19 N          25.2708   -1.7175   -6.6781 N.am      5 UNK        -0.4015 
     20 C          24.6634   -0.7271   -7.3483 C.2       4 UNK         0.4946 
     21 O          25.0074   -0.3386   -8.4649 O.2       4 UNK        -0.5353 
     22 CA         23.5033   -0.0199   -6.6280 C.3       4 UNK         0.0277 
     23 CB         22.1973   -0.8145   -6.7875 C.3       4 UNK        -0.1981 
     24 N          23.7793    0.2019   -5.2057 N.am      4 UNK        -0.4209 
     25 C          24.7451    1.0105   -4.7453 C.2       3 UNK         0.4942 
     26 O          25.4590    1.7016   -5.4704 O.2       3 UNK        -0.5208 
     27 CA         24.9841    1.0254   -3.2262 C.3       3 UNK         0.0250 
     28 CB         24.1119    2.0984   -2.5558 C.3       3 UNK        -0.1990 
     29 N          24.7636   -0.2670   -2.5681 N.am      3 UNK        -0.4232 
     30 C          25.4306   -1.3974   -2.8396 C.2       2 UNK         0.4993 
     31 O          26.2793   -1.4974   -3.7285 O.2       2 UNK        -0.5286 
     32 CA         25.0839   -2.6249   -1.9786 C.3       2 UNK         0.0209 
     33 CB         24.9272   -3.8881   -2.8435 C.3       2 UNK        -0.1931 
     34 N          26.0889   -2.8779   -0.9435 N.am      2 UNK        -0.4546 
     35 C          26.3806   -2.0621    0.0812 C.2       1 UNK         0.5154 
     36 O          25.8239   -0.9800    0.2731 O.2       1 UNK        -0.5181 
     37 C          27.6864   -1.4693   -7.1228 C.2       5 UNK         0.5014 
     38 O          28.4159   -1.4246   -8.1124 O.2       5 UNK        -0.5248 
     39 N          27.8459   -0.6914   -6.0400 N.am      6 UNK        -0.4434 
     40 CA         28.8952    0.3223   -5.9035 C.3       6 UNK         0.0363 
     41 CB         28.8065    1.0030   -4.5297 C.3       6 UNK        -0.1936 
     42 C          28.8602    1.3739   -7.0250 C.2       6 UNK         0.5081 
     43 O          29.9067    1.6893   -7.5913 O.2       6 UNK        -0.5248 
     44 N          27.6560    1.8640   -7.3503 N.am      7 UNK        -0.4718 
     45 CA         27.4021    2.7803   -8.4615 C.3       7 UNK         0.0273 
     46 CB         25.9529    3.2879   -8.3940 C.3       7 UNK        -0.1935 
     47 C          27.6997    2.1497   -9.8313 C.2       7 UNK         0.5018 
     48 O          28.3835    2.7771  -10.6403 O.2       7 UNK        -0.5186 
     49 N          27.2094    0.9216  -10.0601 N.am      8 UNK        -0.4240 
     50 CA         27.4153    0.1634  -11.2994 C.3       8 UNK         0.0235 
     51 CB         26.5443   -1.1029  -11.2857 C.3       8 UNK        -0.2000 
     52 C          28.8882   -0.1965  -11.5584 C.2       8 UNK         0.4941 
     53 O          29.3471   -0.0830  -12.6956 O.2       8 UNK        -0.5273 
     54 N          29.6046   -0.6047  -10.5030 N.am      9 UNK        -0.4262 
     55 CA         31.0311   -0.9338  -10.5373 C.3       9 UNK         0.0264 
     56 CB         31.3743   -1.7833   -9.3009 C.3       9 UNK        -0.1955 
     57 C          31.9500    0.2999  -10.5992 C.2       9 UNK         0.5031 
     58 O          33.1329    0.1353  -10.9017 O.2       9 UNK        -0.5390 
     59 N          31.4125    1.4897  -10.2827 N.am      10 UNK        -0.4204 
     60 CA         32.1207    2.7597  -10.0715 C.3       10 UNK         0.0237 
     61 CB         32.7384    3.2838  -11.3853 C.3       10 UNK        -0.1985 
     62 C          33.1356    2.6449   -8.9165 C.2       10 UNK         0.4970 
     63 O          34.2999    3.0223   -9.0618 O.2       10 UNK        -0.4914 
     64 N          32.6635    2.0788   -7.8002 N.am      11 UNK        -0.4285 
     65 CA         33.4502    1.7306   -6.6101 C.3       11 UNK         0.1007 
     66 C          33.8905    2.9436   -5.7386 C.2       11 UNK         0.5703 
     67 N          33.3269    4.1320   -5.9232 N.am      11 UNK        -0.7361 
     68 O          34.7674    2.8089   -4.8889 O.2       11 UNK        -0.4986 
     69 C69        32.7059    0.6514   -5.7756 C.3       12 UNK        -0.0947 
     70 S70        33.8205   -0.5768   -5.0217 S.3       12 UNK        -0.2240 
     71 C71        33.0835   -2.1469   -5.6052 C.3       12 UNK         0.0194 
     72 H72        26.7309   -6.6150    2.8570 H         1 UNK         0.0906 
     73 H73        25.9155   -6.7507    1.2967 H         1 UNK         0.0906 
     74 H74        27.6671   -6.5469    1.3629 H         1 UNK         0.0906 
     75 H75        28.3026   -4.4549    0.8463 H         1 UNK         0.3140 
     76 H76        27.1485   -2.1358    2.0509 H         1 UNK         0.1085 
     77 H77        28.7955   -0.8953    0.5336 H         1 UNK         0.0836 
     78 H78        29.4691   -2.0216    1.6647 H         1 UNK         0.0836 
     79 H79        28.4499   -1.5129   -2.0823 H         1 UNK         0.0731 
     80 H80        30.0090   -0.7836   -1.7728 H         1 UNK         0.0731 
     81 H81        31.8056   -1.1677   -3.3083 H         1 UNK         0.1312 
     82 H82        31.3715   -4.0390   -6.4774 H         1 UNK         0.1406 
     83 H83        28.3845   -3.7204   -3.4184 H         1 UNK         0.1631 
     84 H84        28.4026   -5.6548   -4.8814 H         1 UNK         0.0717 
     85 H85        29.7672   -5.9483   -5.9221 H         1 UNK         0.0717 
     86 H86        25.8116   -4.3260   -6.3406 H         1 UNK         0.0934 
     87 H87        26.9467   -3.5036   -5.3120 H         1 UNK         0.0934 
     88 H88        26.2946   -2.6901   -8.1816 H         1 UNK         0.0739 
     89 H89        24.9673   -1.9218   -5.7376 H         1 UNK         0.3093 
     90 H90        23.3690    0.9561   -7.0999 H         1 UNK         0.0818 
     91 H91        21.3524   -0.2797   -6.3532 H         1 UNK         0.0819 
     92 H92        21.9676   -0.9766   -7.8417 H         1 UNK         0.0819 
     93 H93        22.2551   -1.7946   -6.3124 H         1 UNK         0.0819 
     94 H94        23.2252   -0.3151   -4.5386 H         1 UNK         0.3041 
     95 H95        26.0299    1.2919   -3.0646 H         1 UNK         0.0784 
     96 H96        24.2767    3.0758   -3.0119 H         1 UNK         0.0793 
     97 H97        23.0488    1.8714   -2.6461 H         1 UNK         0.0793 
     98 H98        24.3468    2.1949   -1.4955 H         1 UNK         0.0793 
     99 H99        24.1184   -0.2669   -1.7906 H         1 UNK         0.3024 
    100 H100       24.1288   -2.4411   -1.4815 H         1 UNK         0.1171 
    101 H101       24.2170   -3.7244   -3.6551 H         1 UNK         0.0786 
    102 H102       24.5540   -4.7256   -2.2538 H         1 UNK         0.0786 
    103 H103       25.8725   -4.1938   -3.2917 H         1 UNK         0.0786 
    104 H104       26.6063   -3.7415   -1.0126 H         1 UNK         0.2977 
    105 H105       27.2281   -0.8312   -5.2439 H         1 UNK         0.3127 
    106 H106       29.8437   -0.2112   -5.9626 H         1 UNK         0.0770 
    107 H107       27.9357    1.6531   -4.4545 H         1 UNK         0.0814 
    108 H108       29.6860    1.6211   -4.3474 H         1 UNK         0.0814 
    109 H109       28.7463    0.2743   -3.7249 H         1 UNK         0.0814 
    110 H110       26.8534    1.5961   -6.7853 H         1 UNK         0.2983 
    111 H111       28.0684    3.6374   -8.3417 H         1 UNK         0.0947 
    112 H112       25.7429    3.9828   -9.2082 H         1 UNK         0.0806 
    113 H113       25.7626    3.8155   -7.4592 H         1 UNK         0.0806 
    114 H114       25.2340    2.4709   -8.4659 H         1 UNK         0.0806 
    115 H115       26.6317    0.4830   -9.3482 H         1 UNK         0.3000 
    116 H116       27.0825    0.7935  -12.1270 H         1 UNK         0.0850 
    117 H117       26.6673   -1.6728  -12.2077 H         1 UNK         0.0810 
    118 H118       25.4865   -0.8553  -11.1961 H         1 UNK         0.0810 
    119 H119       26.8046   -1.7614  -10.4565 H         1 UNK         0.0810 
    120 H120       29.1304   -0.7408   -9.6088 H         1 UNK         0.3040 
    121 H121       31.2256   -1.5330  -11.4292 H         1 UNK         0.0766 
    122 H122       32.4235   -2.0812   -9.3060 H         1 UNK         0.0812 
    123 H123       30.7776   -2.6952   -9.2666 H         1 UNK         0.0812 
    124 H124       31.1936   -1.2344   -8.3757 H         1 UNK         0.0812 
    125 H125       30.4312    1.4997  -10.0340 H         1 UNK         0.3205 
    126 H126       31.3664    3.4798   -9.7501 H         1 UNK         0.0754 
    127 H127       33.1635    4.2783  -11.2452 H         1 UNK         0.0769 
    128 H128       31.9871    3.3598  -12.1715 H         1 UNK         0.0769 
    129 H129       33.5385    2.6376  -11.7473 H         1 UNK         0.0769 
    130 H130       31.6694    1.8569   -7.7560 H         1 UNK         0.2981 
    131 H131       34.3734    1.2873   -6.9882 H         1 UNK         0.0541 
    132 H132       33.6235    4.9129   -5.3595 H         1 UNK         0.3459 
    133 H133       32.6091    4.2529   -6.6191 H         1 UNK         0.3459 
    134 H134       32.0199    0.1019   -6.4195 H         1 UNK         0.0612 
    135 H135       32.0822    1.0973   -4.9991 H         1 UNK         0.0612 
    136 H136       32.9885   -2.1029   -6.6910 H         1 UNK         0.0624 
    137 H137       33.7939   -2.9468   -5.3935 H         1 UNK         0.0624 
@<TRIPOS>BOND
     1    1    2 1    
     2    1   72 1    
     3    1   73 1    
     4    1   74 1    
     5    2    3 2    
     6    2    4 am   BACKBONE|DICT|INTERRES
     7    4    5 1    
     8    4   75 1    
     9    5    6 1    
    10    5   35 1    
    11    5   76 1    
    12    6    7 1    
    13    6   77 1    
    14    6   78 1    
    15    7    8 1    
    16    8    9 1    
    17    8   79 1    
    18    8   80 1    
    19    9   10 ar   
    20    9   14 ar   
    21   10   11 ar   
    22   10   81 1    
    23   11   12 ar   
    24   11   71 1    
    25   12   13 ar   
    26   12   82 1    
    27   13   14 ar   
    28   13   15 1    
    29   14   83 1    
    30   15   16 1    
    31   15   84 1    
    32   15   85 1    
    33   16   17 1    
    34   17   18 1    
    35   17   86 1    
    36   17   87 1    
    37   18   19 1    
    38   18   37 1    
    39   18   88 1    
    40   19   20 am   BACKBONE|DICT|INTERRES
    41   19   89 1    
    42   20   21 2    
    43   20   22 1    
    44   22   23 1    
    45   22   24 1    
    46   22   90 1    
    47   23   91 1    
    48   23   92 1    
    49   23   93 1    
    50   24   25 am   BACKBONE|DICT|INTERRES
    51   24   94 1    
    52   25   26 2    
    53   25   27 1    
    54   27   28 1    
    55   27   29 1    
    56   27   95 1    
    57   28   96 1    
    58   28   97 1    
    59   28   98 1    
    60   29   30 am   BACKBONE|DICT|INTERRES
    61   29   99 1    
    62   30   31 2    
    63   30   32 1    
    64   32   33 1    
    65   32   34 1    
    66   32  100 1    
    67   33  101 1    
    68   33  102 1    
    69   33  103 1    
    70   34   35 am   BACKBONE|DICT|INTERRES
    71   34  104 1    
    72   35   36 2    
    73   37   38 2    
    74   37   39 am   BACKBONE|DICT|INTERRES
    75   39   40 1    
    76   39  105 1    
    77   40   41 1    
    78   40   42 1    
    79   40  106 1    
    80   41  107 1    
    81   41  108 1    
    82   41  109 1    
    83   42   43 2    
    84   42   44 am   BACKBONE|DICT|INTERRES
    85   44   45 1    
    86   44  110 1    
    87   45   46 1    
    88   45   47 1    
    89   45  111 1    
    90   46  112 1    
    91   46  113 1    
    92   46  114 1    
    93   47   48 2    
    94   47   49 am   BACKBONE|DICT|INTERRES
    95   49   50 1    
    96   49  115 1    
    97   50   51 1    
    98   50   52 1    
    99   50  116 1    
   100   51  117 1    
   101   51  118 1    
   102   51  119 1    
   103   52   53 2    
   104   52   54 am   BACKBONE|DICT|INTERRES
   105   54   55 1    
   106   54  120 1    
   107   55   56 1    
   108   55   57 1    
   109   55  121 1    
   110   56  122 1    
   111   56  123 1    
   112   56  124 1    
   113   57   58 2    
   114   57   59 am   BACKBONE|DICT|INTERRES
   115   59   60 1    
   116   59  125 1    
   117   60   61 1    
   118   60   62 1    
   119   60  126 1    
   120   61  127 1    
   121   61  128 1    
   122   61  129 1    
   123   62   63 2    
   124   62   64 am   BACKBONE|DICT|INTERRES
   125   64   65 1    
   126   64  130 1    
   127   65   66 1    
   128   65   69 1    
   129   65  131 1    
   130   66   67 am   BACKBONE|DICT|INTERRES
   131   66   68 2    
   132   67  132 1    
   133   67  133 1    
   134   69   70 1    
   135   69  134 1    
   136   69  135 1    
   137   70   71 1    
   138   71  136 1    
   139   71  137 1    
@<TRIPOS>SUBSTRUCTURE
     1 UNK         1 GROUP             0       ****    0 ROOT    
