@<TRIPOS>MOLECULE
3R137
137   139    1
SMALL
USER_CHARGES


@<TRIPOS>ATOM
      1 CA         27.9382   -8.4333    0.0422 C.3       0 UNK        -0.2020 
      2 C          27.1584   -7.1342    0.1769 C.2       0 UNK         0.4855 
      3 O          26.1619   -7.0898    0.8986 O.2       0 UNK        -0.5197 
      4 N          27.6041   -6.0754   -0.5116 N.am      1 UNK        -0.4892 
      5 CA         26.9683   -4.7508   -0.5301 C.3       1 UNK         0.0835 
      6 C6         27.9432   -3.6551   -1.0310 C.3       12 UNK        -0.0855 
      7 S7         28.6967   -4.0288   -2.6550 S.3       12 UNK        -0.2931 
      8 C8         28.4738   -2.4617   -3.5464 C.3       12 UNK         0.0378 
      9 C9         29.5264   -1.4295   -3.1708 C.ar      12 UNK        -0.0802 
     10 C10        30.7234   -1.3580   -3.8891 C.ar      12 UNK        -0.0944 
     11 C11        31.6669   -0.3673   -3.6046 C.ar      12 UNK        -0.0787 
     12 C12        31.4198    0.5427   -2.5731 C.ar      12 UNK        -0.0862 
     13 C13        30.2350    0.4703   -1.8344 C.ar      12 UNK        -0.0733 
     14 C14        29.2929   -0.5189   -2.1370 C.ar      12 UNK        -0.0832 
     15 C15        29.9660    1.4669   -0.7165 C.3       12 UNK         0.0240 
     16 S16        28.4552    2.4362   -1.0171 S.3       12 UNK        -0.2522 
     17 C17        28.9326    3.4696   -2.4476 C.3       12 UNK        -0.0967 
     18 CA         28.6088    2.8507   -3.8406 C.3       5 UNK         0.0660 
     19 N          27.2672    2.2522   -3.8733 N.am      5 UNK        -0.4015 
     20 C          26.8348    1.3163   -4.7259 C.2       4 UNK         0.4946 
     21 O          27.4811    0.9041   -5.6929 O.2       4 UNK        -0.5353 
     22 CA         25.4299    0.7661   -4.4737 C.3       4 UNK         0.0277 
     23 CB         24.3558    1.7014   -5.0574 C.3       4 UNK        -0.1981 
     24 N          25.3372   -0.5492   -5.1001 N.am      4 UNK        -0.4209 
     25 C          24.6069   -1.5740   -4.6482 C.2       3 UNK         0.4942 
     26 O          23.8795   -1.4952   -3.6567 O.2       3 UNK        -0.5208 
     27 CA         24.6845   -2.9032   -5.4263 C.3       3 UNK         0.0250 
     28 CB         25.7983   -2.9590   -6.4929 C.3       3 UNK        -0.1990 
     29 N          24.8515   -4.0232   -4.4960 N.am      3 UNK        -0.4232 
     30 C          23.8520   -4.7746   -4.0143 C.2       2 UNK         0.4993 
     31 O          22.6729   -4.6476   -4.3491 O.2       2 UNK        -0.5286 
     32 CA         24.2185   -5.8785   -3.0055 C.3       2 UNK         0.0209 
     33 CB         24.3072   -7.2417   -3.7121 C.3       2 UNK        -0.1931 
     34 N          25.4642   -5.6457   -2.2671 N.am      2 UNK        -0.4546 
     35 C          25.6248   -4.7347   -1.2952 C.2       1 UNK         0.5154 
     36 O          24.7551   -3.9262   -0.9696 O.2       1 UNK        -0.5181 
     37 C          28.8219    3.8738   -4.9846 C.2       5 UNK         0.5014 
     38 O          29.2121    5.0152   -4.7277 O.2       5 UNK        -0.5248 
     39 N          28.5257    3.4712   -6.2231 N.am      6 UNK        -0.4434 
     40 CA         28.5341    4.2984   -7.4260 C.3       6 UNK         0.0363 
     41 CB         27.2613    5.1739   -7.4657 C.3       6 UNK        -0.1936 
     42 C          28.6728    3.3914   -8.6575 C.2       6 UNK         0.5081 
     43 O          29.0805    2.2346   -8.5265 O.2       6 UNK        -0.5248 
     44 N          28.3042    3.9128   -9.8363 N.am      7 UNK        -0.4718 
     45 CA         28.3741    3.2544  -11.1501 C.3       7 UNK         0.0273 
     46 CB         27.8823    4.2377  -12.2248 C.3       7 UNK        -0.1935 
     47 C          27.6230    1.9123  -11.2691 C.2       7 UNK         0.5018 
     48 O          27.9198    1.1442  -12.1842 O.2       7 UNK        -0.5186 
     49 N          26.6956    1.6388  -10.3392 N.am      8 UNK        -0.4240 
     50 CA         26.0424    0.3399  -10.1547 C.3       8 UNK         0.0235 
     51 CB         24.9652    0.4632   -9.0641 C.3       8 UNK        -0.2000 
     52 C          27.0341   -0.7835   -9.7970 C.2       8 UNK         0.4941 
     53 O          26.8486   -1.9131  -10.2507 O.2       8 UNK        -0.5273 
     54 N          28.0635   -0.4495   -9.0066 N.am      9 UNK        -0.4262 
     55 CA         29.1730   -1.3374   -8.6612 C.3       9 UNK         0.0264 
     56 CB         29.4703   -1.2118   -7.1621 C.3       9 UNK        -0.1955 
     57 C          30.4403   -0.9994   -9.4577 C.2       9 UNK         0.5031 
     58 O          31.2274   -1.9041   -9.7382 O.2       9 UNK        -0.5390 
     59 N          30.6492    0.2920   -9.7578 N.am      10 UNK        -0.4204 
     60 CA         31.8005    0.9187  -10.4258 C.3       10 UNK         0.0237 
     61 CB         32.0300    0.3440  -11.8368 C.3       10 UNK        -0.1985 
     62 C          33.0966    0.9166   -9.5925 C.2       10 UNK         0.4970 
     63 O          33.8399    1.8965   -9.6507 O.2       10 UNK        -0.4914 
     64 N          33.3261   -0.1521   -8.8202 N.am      11 UNK        -0.4285 
     65 CA         34.4042   -0.3211   -7.8304 C.3       11 UNK         0.1007 
     66 C          35.8352   -0.4510   -8.4358 C.2       11 UNK         0.5703 
     67 N          35.9854   -0.7043   -9.7307 N.am      11 UNK        -0.7361 
     68 O          36.8285   -0.3567   -7.7180 O.2       11 UNK        -0.4986 
     69 C69        34.3342    0.7134   -6.6667 C.3       12 UNK        -0.0947 
     70 S70        32.6919    0.8013   -5.8725 S.3       12 UNK        -0.2240 
     71 C71        32.9426   -0.2689   -4.4252 C.3       12 UNK         0.0194 
     72 H72        28.7967   -8.3274   -0.6208 H         1 UNK         0.0906 
     73 H73        28.3013   -8.7558    1.0177 H         1 UNK         0.0906 
     74 H74        27.2953   -9.2168   -0.3582 H         1 UNK         0.0906 
     75 H75        28.4308   -6.1596   -1.0880 H         1 UNK         0.3140 
     76 H76        26.7183   -4.5033    0.5045 H         1 UNK         0.1085 
     77 H77        28.7556   -3.5363   -0.3122 H         1 UNK         0.0836 
     78 H78        27.4379   -2.6885   -1.0586 H         1 UNK         0.0836 
     79 H79        27.4692   -2.0686   -3.3833 H         1 UNK         0.0731 
     80 H80        28.5486   -2.6755   -4.6113 H         1 UNK         0.0731 
     81 H81        30.9144   -2.0641   -4.6842 H         1 UNK         0.1312 
     82 H82        32.1471    1.3128   -2.3545 H         1 UNK         0.1406 
     83 H83        28.3685   -0.5608   -1.5783 H         1 UNK         0.1631 
     84 H84        30.8089    2.1458   -0.5779 H         1 UNK         0.0717 
     85 H85        29.8530    0.9216    0.2214 H         1 UNK         0.0717 
     86 H86        28.4072    4.4188   -2.3241 H         1 UNK         0.0934 
     87 H87        29.9956    3.7085   -2.3787 H         1 UNK         0.0934 
     88 H88        29.3253    2.0464   -4.0191 H         1 UNK         0.0739 
     89 H89        26.6529    2.5471   -3.1286 H         1 UNK         0.3093 
     90 H90        25.2889    0.6702   -3.3946 H         1 UNK         0.0818 
     91 H91        24.3960    2.6866   -4.5915 H         1 UNK         0.0819 
     92 H92        24.4826    1.8435   -6.1309 H         1 UNK         0.0819 
     93 H93        23.3538    1.3062   -4.8893 H         1 UNK         0.0819 
     94 H94        25.9755   -0.6798   -5.8750 H         1 UNK         0.3041 
     95 H95        23.7331   -3.0018   -5.9532 H         1 UNK         0.0784 
     96 H96        25.6752   -2.1807   -7.2471 H         1 UNK         0.0793 
     97 H97        26.7888   -2.8522   -6.0566 H         1 UNK         0.0793 
     98 H98        25.7786   -3.9107   -7.0244 H         1 UNK         0.0793 
     99 H99        25.7800   -4.1866   -4.1354 H         1 UNK         0.3024 
    100 H100       23.4039   -5.9247   -2.2788 H         1 UNK         0.1171 
    101 H101       25.1188   -7.2672   -4.4403 H         1 UNK         0.0786 
    102 H102       24.4692   -8.0496   -2.9981 H         1 UNK         0.0786 
    103 H103       23.3829   -7.4659   -4.2467 H         1 UNK         0.0786 
    104 H104       26.2359   -6.2682   -2.4593 H         1 UNK         0.2977 
    105 H105       28.2680    2.4942   -6.3613 H         1 UNK         0.3127 
    106 H106       29.4149    4.9431   -7.4034 H         1 UNK         0.0770 
    107 H107       26.3599    4.5681   -7.5669 H         1 UNK         0.0814 
    108 H108       27.2824    5.8817   -8.2946 H         1 UNK         0.0814 
    109 H109       27.1580    5.7672   -6.5571 H         1 UNK         0.0814 
    110 H110       27.9691    4.8657   -9.8419 H         1 UNK         0.2983 
    111 H111       29.4262    3.0382  -11.3452 H         1 UNK         0.0947 
    112 H112       27.9503    3.7968  -13.2206 H         1 UNK         0.0806 
    113 H113       28.4825    5.1478  -12.2369 H         1 UNK         0.0806 
    114 H114       26.8414    4.5218  -12.0653 H         1 UNK         0.0806 
    115 H115       26.5118    2.3447   -9.6421 H         1 UNK         0.3000 
    116 H116       25.5579    0.0717  -11.0959 H         1 UNK         0.0850 
    117 H117       25.3981    0.7344   -8.1005 H         1 UNK         0.0810 
    118 H118       24.4368   -0.4817   -8.9295 H         1 UNK         0.0810 
    119 H119       24.2196    1.2152   -9.3229 H         1 UNK         0.0810 
    120 H120       28.1448    0.5116   -8.6891 H         1 UNK         0.3040 
    121 H121       28.9086   -2.3760   -8.8710 H         1 UNK         0.0766 
    122 H122       29.8052   -0.2084   -6.8931 H         1 UNK         0.0812 
    123 H123       28.5874   -1.4309   -6.5663 H         1 UNK         0.0812 
    124 H124       30.2529   -1.9106   -6.8675 H         1 UNK         0.0812 
    125 H125       29.9905    0.9633   -9.3633 H         1 UNK         0.3205 
    126 H126       31.5217    1.9667  -10.5447 H         1 UNK         0.0754 
    127 H127       32.8066    0.9022  -12.3611 H         1 UNK         0.0769 
    128 H128       31.1232    0.4051  -12.4391 H         1 UNK         0.0769 
    129 H129       32.3451   -0.6993  -11.8095 H         1 UNK         0.0769 
    130 H130       32.6789   -0.9290   -8.9101 H         1 UNK         0.2981 
    131 H131       34.2170   -1.2995   -7.3871 H         1 UNK         0.0541 
    132 H132       36.9136   -0.7986  -10.1117 H         1 UNK         0.3459 
    133 H133       35.1800   -0.7946  -10.3286 H         1 UNK         0.3459 
    134 H134       34.5831    1.7109   -7.0315 H         1 UNK         0.0612 
    135 H135       35.0778    0.4828   -5.9019 H         1 UNK         0.0612 
    136 H136       33.2554   -1.2601   -4.7569 H         1 UNK         0.0624 
    137 H137       33.7545    0.1280   -3.8139 H         1 UNK         0.0624 
@<TRIPOS>BOND
     1    1    2 1    
     2    1   72 1    
     3    1   73 1    
     4    1   74 1    
     5    2    3 2    
     6    2    4 am   BACKBONE|DICT|INTERRES
     7    4    5 1    
     8    4   75 1    
     9    5    6 1    
    10    5   35 1    
    11    5   76 1    
    12    6    7 1    
    13    6   77 1    
    14    6   78 1    
    15    7    8 1    
    16    8    9 1    
    17    8   79 1    
    18    8   80 1    
    19    9   10 ar   
    20    9   14 ar   
    21   10   11 ar   
    22   10   81 1    
    23   11   12 ar   
    24   11   71 1    
    25   12   13 ar   
    26   12   82 1    
    27   13   14 ar   
    28   13   15 1    
    29   14   83 1    
    30   15   16 1    
    31   15   84 1    
    32   15   85 1    
    33   16   17 1    
    34   17   18 1    
    35   17   86 1    
    36   17   87 1    
    37   18   19 1    
    38   18   37 1    
    39   18   88 1    
    40   19   20 am   BACKBONE|DICT|INTERRES
    41   19   89 1    
    42   20   21 2    
    43   20   22 1    
    44   22   23 1    
    45   22   24 1    
    46   22   90 1    
    47   23   91 1    
    48   23   92 1    
    49   23   93 1    
    50   24   25 am   BACKBONE|DICT|INTERRES
    51   24   94 1    
    52   25   26 2    
    53   25   27 1    
    54   27   28 1    
    55   27   29 1    
    56   27   95 1    
    57   28   96 1    
    58   28   97 1    
    59   28   98 1    
    60   29   30 am   BACKBONE|DICT|INTERRES
    61   29   99 1    
    62   30   31 2    
    63   30   32 1    
    64   32   33 1    
    65   32   34 1    
    66   32  100 1    
    67   33  101 1    
    68   33  102 1    
    69   33  103 1    
    70   34   35 am   BACKBONE|DICT|INTERRES
    71   34  104 1    
    72   35   36 2    
    73   37   38 2    
    74   37   39 am   BACKBONE|DICT|INTERRES
    75   39   40 1    
    76   39  105 1    
    77   40   41 1    
    78   40   42 1    
    79   40  106 1    
    80   41  107 1    
    81   41  108 1    
    82   41  109 1    
    83   42   43 2    
    84   42   44 am   BACKBONE|DICT|INTERRES
    85   44   45 1    
    86   44  110 1    
    87   45   46 1    
    88   45   47 1    
    89   45  111 1    
    90   46  112 1    
    91   46  113 1    
    92   46  114 1    
    93   47   48 2    
    94   47   49 am   BACKBONE|DICT|INTERRES
    95   49   50 1    
    96   49  115 1    
    97   50   51 1    
    98   50   52 1    
    99   50  116 1    
   100   51  117 1    
   101   51  118 1    
   102   51  119 1    
   103   52   53 2    
   104   52   54 am   BACKBONE|DICT|INTERRES
   105   54   55 1    
   106   54  120 1    
   107   55   56 1    
   108   55   57 1    
   109   55  121 1    
   110   56  122 1    
   111   56  123 1    
   112   56  124 1    
   113   57   58 2    
   114   57   59 am   BACKBONE|DICT|INTERRES
   115   59   60 1    
   116   59  125 1    
   117   60   61 1    
   118   60   62 1    
   119   60  126 1    
   120   61  127 1    
   121   61  128 1    
   122   61  129 1    
   123   62   63 2    
   124   62   64 am   BACKBONE|DICT|INTERRES
   125   64   65 1    
   126   64  130 1    
   127   65   66 1    
   128   65   69 1    
   129   65  131 1    
   130   66   67 am   BACKBONE|DICT|INTERRES
   131   66   68 2    
   132   67  132 1    
   133   67  133 1    
   134   69   70 1    
   135   69  134 1    
   136   69  135 1    
   137   70   71 1    
   138   71  136 1    
   139   71  137 1    
@<TRIPOS>SUBSTRUCTURE
     1 UNK         1 GROUP             0       ****    0 ROOT    
