@<TRIPOS>MOLECULE
3R137
137   139    1
SMALL
USER_CHARGES


@<TRIPOS>ATOM
      1 CA         23.6106   -5.6224    0.3985 C.3       0 UNK        -0.2020 
      2 C          24.7863   -4.6612    0.4811 C.2       0 UNK         0.4855 
      3 O          24.7946   -3.7719    1.3331 O.2       0 UNK        -0.5197 
      4 N          25.7755   -4.8156   -0.4090 N.am      1 UNK        -0.4892 
      5 CA         26.9911   -3.9942   -0.4961 C.3       1 UNK         0.0835 
      6 C6         28.1400   -4.7985   -1.1616 C.3       12 UNK        -0.0855 
      7 S7         29.7979   -4.2363   -0.6442 S.3       12 UNK        -0.2931 
      8 C8         30.7066   -4.1468   -2.2322 C.3       12 UNK         0.0378 
      9 C9         31.1077   -2.7449   -2.7012 C.ar      12 UNK        -0.0802 
     10 C10        31.9529   -2.6398   -3.8115 C.ar      12 UNK        -0.0944 
     11 C11        32.3810   -1.3924   -4.2788 C.ar      12 UNK        -0.0787 
     12 C12        31.9689   -0.2357   -3.6121 C.ar      12 UNK        -0.0862 
     13 C13        31.1285   -0.3186   -2.4990 C.ar      12 UNK        -0.0733 
     14 C14        30.6902   -1.5714   -2.0581 C.ar      12 UNK        -0.0832 
     15 C15        30.7213    0.9436   -1.7492 C.3       12 UNK         0.0240 
     16 S16        29.6474    2.0324   -2.7367 S.3       12 UNK        -0.2522 
     17 C17        28.2224    0.9454   -3.0670 C.3       12 UNK        -0.0967 
     18 CA         28.1580    0.5086   -4.5530 C.3       5 UNK         0.0660 
     19 N          27.5950   -0.8403   -4.6935 N.am      5 UNK        -0.4015 
     20 C          27.4058   -1.5142   -5.8391 C.2       4 UNK         0.4946 
     21 O          27.6584   -1.0724   -6.9613 O.2       4 UNK        -0.5353 
     22 CA         26.7896   -2.9129   -5.7096 C.3       4 UNK         0.0277 
     23 CB         27.8361   -3.9257   -5.2147 C.3       4 UNK        -0.1981 
     24 N          25.6416   -2.8819   -4.8030 N.am      4 UNK        -0.4209 
     25 C          24.4167   -2.4664   -5.1609 C.2       3 UNK         0.4942 
     26 O          24.0966   -2.1951   -6.3181 O.2       3 UNK        -0.5208 
     27 CA         23.3728   -2.3007   -4.0410 C.3       3 UNK         0.0250 
     28 CB         22.5715   -3.5994   -3.8549 C.3       3 UNK        -0.1990 
     29 N          23.9527   -1.9033   -2.7560 N.am      3 UNK        -0.4232 
     30 C          24.5943   -0.7492   -2.5212 C.2       2 UNK         0.4993 
     31 O          24.7288    0.1451   -3.3561 O.2       2 UNK        -0.5286 
     32 CA         25.2517   -0.6001   -1.1372 C.3       2 UNK         0.0209 
     33 CB         24.2611    0.0101   -0.1338 C.3       2 UNK        -0.1931 
     34 N          25.7756   -1.8622   -0.6001 N.am      2 UNK        -0.4546 
     35 C          26.6886   -2.6460   -1.1912 C.2       1 UNK         0.5154 
     36 O          27.2077   -2.3652   -2.2735 O.2       1 UNK        -0.5181 
     37 C          27.4443    1.5792   -5.4066 C.2       5 UNK         0.5014 
     38 O          28.0911    2.5270   -5.8515 O.2       5 UNK        -0.5248 
     39 N          26.1398    1.3954   -5.6559 N.am      6 UNK        -0.4434 
     40 CA         25.3018    2.2203   -6.5309 C.3       6 UNK         0.0363 
     41 CB         23.8830    1.6298   -6.5562 C.3       6 UNK        -0.1936 
     42 C          25.8328    2.3988   -7.9694 C.2       6 UNK         0.5081 
     43 O          25.5208    3.4147   -8.5911 O.2       6 UNK        -0.5248 
     44 N          26.6330    1.4437   -8.4690 N.am      7 UNK        -0.4718 
     45 CA         27.3094    1.5271   -9.7698 C.3       7 UNK         0.0273 
     46 CB         27.3198    0.1382  -10.4279 C.3       7 UNK        -0.1935 
     47 C          28.7106    2.1783   -9.6989 C.2       7 UNK         0.5018 
     48 O          29.4025    2.2295  -10.7187 O.2       7 UNK        -0.5186 
     49 N          29.0880    2.7072   -8.5238 N.am      8 UNK        -0.4240 
     50 CA         30.2430    3.5684   -8.2508 C.3       8 UNK         0.0235 
     51 CB         30.0053    4.9723   -8.8540 C.3       8 UNK        -0.2000 
     52 C          31.5848    2.9297   -8.6512 C.2       8 UNK         0.4941 
     53 O          31.9836    1.9377   -8.0422 O.2       8 UNK        -0.5273 
     54 N          32.2638    3.5087   -9.6516 N.am      9 UNK        -0.4262 
     55 CA         33.5695    3.0735  -10.1568 C.3       9 UNK         0.0264 
     56 CB         34.1084    4.1342  -11.1310 C.3       9 UNK        -0.1955 
     57 C          33.5623    1.6857  -10.8242 C.2       9 UNK         0.5031 
     58 O          34.6253    1.0721  -10.9295 O.2       9 UNK        -0.5390 
     59 N          32.3854    1.2141  -11.2526 N.am      10 UNK        -0.4204 
     60 CA         32.1675   -0.1120  -11.8240 C.3       10 UNK         0.0237 
     61 CB         31.7361    0.0409  -13.2955 C.3       10 UNK        -0.1985 
     62 C          31.1309   -0.8505  -10.9656 C.2       10 UNK         0.4970 
     63 O          30.1196   -1.3113  -11.4964 O.2       10 UNK        -0.4914 
     64 N          31.3878   -0.9077   -9.6501 N.am      11 UNK        -0.4285 
     65 CA         30.5041   -1.4857   -8.6274 C.3       11 UNK         0.1007 
     66 C          30.0176   -2.9327   -8.9257 C.2       11 UNK         0.5703 
     67 N          28.7622   -3.2267   -8.6204 N.am      11 UNK        -0.7361 
     68 O          30.7660   -3.7842   -9.4030 O.2       11 UNK        -0.4986 
     69 C69        31.0873   -1.3519   -7.1968 C.3       12 UNK        -0.0947 
     70 S70        32.7005   -2.1665   -6.9526 S.3       12 UNK        -0.2240 
     71 C71        33.3156   -1.2857   -5.4806 C.3       12 UNK         0.0194 
     72 H72        23.5106   -6.1724    1.3339 H         1 UNK         0.0906 
     73 H73        22.6863   -5.0712    0.2274 H         1 UNK         0.0906 
     74 H74        23.7288   -6.3452   -0.4085 H         1 UNK         0.0906 
     75 H75        25.7012   -5.5521   -1.0972 H         1 UNK         0.3140 
     76 H76        27.3009   -3.7562    0.5245 H         1 UNK         0.1085 
     77 H77        28.0402   -4.8109   -2.2471 H         1 UNK         0.0836 
     78 H78        28.0789   -5.8454   -0.8593 H         1 UNK         0.0836 
     79 H79        30.1414   -4.6378   -3.0243 H         1 UNK         0.0731 
     80 H80        31.6170   -4.7360   -2.1120 H         1 UNK         0.0731 
     81 H81        32.2855   -3.5366   -4.3166 H         1 UNK         0.1312 
     82 H82        32.3048    0.7342   -3.9534 H         1 UNK         0.1406 
     83 H83        30.0357   -1.6218   -1.2003 H         1 UNK         0.1631 
     84 H84        31.6191    1.4965   -1.4695 H         1 UNK         0.0717 
     85 H85        30.2133    0.6972   -0.8154 H         1 UNK         0.0717 
     86 H86        28.2994    0.0766   -2.4132 H         1 UNK         0.0934 
     87 H87        27.3089    1.4578   -2.7584 H         1 UNK         0.0934 
     88 H88        29.1764    0.4271   -4.9397 H         1 UNK         0.0739 
     89 H89        27.3879   -1.3254   -3.8239 H         1 UNK         0.3093 
     90 H90        26.4504   -3.2330   -6.6973 H         1 UNK         0.0818 
     91 H91        28.6477   -4.0314   -5.9350 H         1 UNK         0.0819 
     92 H92        28.2902   -3.6170   -4.2742 H         1 UNK         0.0819 
     93 H93        27.3994   -4.9140   -5.0718 H         1 UNK         0.0819 
     94 H94        25.8374   -3.0361   -3.8228 H         1 UNK         0.3041 
     95 H95        22.6837   -1.5119   -4.3510 H         1 UNK         0.0784 
     96 H96        22.1070   -3.9082   -4.7926 H         1 UNK         0.0793 
     97 H97        23.2043   -4.4218   -3.5185 H         1 UNK         0.0793 
     98 H98        21.7705   -3.4712   -3.1265 H         1 UNK         0.0793 
     99 H99        23.8908   -2.5711   -2.0019 H         1 UNK         0.3024 
    100 H100       26.0924    0.0858   -1.2442 H         1 UNK         0.1171 
    101 H101       24.7405    0.2100    0.8247 H         1 UNK         0.0786 
    102 H102       23.8673    0.9589   -0.5013 H         1 UNK         0.0786 
    103 H103       23.4108   -0.6487    0.0477 H         1 UNK         0.0786 
    104 H104       25.3616   -2.2082    0.2613 H         1 UNK         0.2977 
    105 H105       25.6700    0.6444   -5.1613 H         1 UNK         0.3127 
    106 H106       25.2524    3.2139   -6.0813 H         1 UNK         0.0770 
    107 H107       23.8770    0.6181   -6.9643 H         1 UNK         0.0814 
    108 H108       23.2169    2.2354   -7.1724 H         1 UNK         0.0814 
    109 H109       23.4511    1.5896   -5.5559 H         1 UNK         0.0814 
    110 H110       26.8589    0.6395   -7.8905 H         1 UNK         0.2983 
    111 H111       26.7293    2.1754  -10.4301 H         1 UNK         0.0947 
    112 H112       27.7822   -0.6157   -9.7961 H         1 UNK         0.0806 
    113 H113       27.8582    0.1526  -11.3762 H         1 UNK         0.0806 
    114 H114       26.3055   -0.1971  -10.6437 H         1 UNK         0.0806 
    115 H115       28.4857    2.5596   -7.7178 H         1 UNK         0.3000 
    116 H116       30.2832    3.6832   -7.1664 H         1 UNK         0.0850 
    117 H117       30.8244    5.6522   -8.6146 H         1 UNK         0.0810 
    118 H118       29.0975    5.4184   -8.4470 H         1 UNK         0.0810 
    119 H119       29.8951    4.9451   -9.9388 H         1 UNK         0.0810 
    120 H120       31.8490    4.3116  -10.1022 H         1 UNK         0.3040 
    121 H121       34.2495    3.0151   -9.3042 H         1 UNK         0.0766 
    122 H122       34.2077    5.1059  -10.6468 H         1 UNK         0.0812 
    123 H123       33.4575    4.2538  -11.9981 H         1 UNK         0.0812 
    124 H124       35.0966    3.8579  -11.5018 H         1 UNK         0.0812 
    125 H125       31.5478    1.7618  -11.0806 H         1 UNK         0.3205 
    126 H126       33.0821   -0.7079  -11.7964 H         1 UNK         0.0754 
    127 H127       31.5769   -0.9328  -13.7606 H         1 UNK         0.0769 
    128 H128       32.4986    0.5574  -13.8787 H         1 UNK         0.0769 
    129 H129       30.8065    0.6049  -13.3855 H         1 UNK         0.0769 
    130 H130       32.2379   -0.4900   -9.3009 H         1 UNK         0.2981 
    131 H131       29.6263   -0.8430   -8.6445 H         1 UNK         0.0541 
    132 H132       28.4090   -4.1521   -8.8026 H         1 UNK         0.3459 
    133 H133       28.1730   -2.5189   -8.1966 H         1 UNK         0.3459 
    134 H134       31.1904   -0.2962   -6.9456 H         1 UNK         0.0612 
    135 H135       30.3887   -1.7546   -6.4616 H         1 UNK         0.0612 
    136 H136       33.4840   -0.2417   -5.7502 H         1 UNK         0.0624 
    137 H137       34.2886   -1.6957   -5.2078 H         1 UNK         0.0624 
@<TRIPOS>BOND
     1    1    2 1    
     2    1   72 1    
     3    1   73 1    
     4    1   74 1    
     5    2    3 2    
     6    2    4 am   BACKBONE|DICT|INTERRES
     7    4    5 1    
     8    4   75 1    
     9    5    6 1    
    10    5   35 1    
    11    5   76 1    
    12    6    7 1    
    13    6   77 1    
    14    6   78 1    
    15    7    8 1    
    16    8    9 1    
    17    8   79 1    
    18    8   80 1    
    19    9   10 ar   
    20    9   14 ar   
    21   10   11 ar   
    22   10   81 1    
    23   11   12 ar   
    24   11   71 1    
    25   12   13 ar   
    26   12   82 1    
    27   13   14 ar   
    28   13   15 1    
    29   14   83 1    
    30   15   16 1    
    31   15   84 1    
    32   15   85 1    
    33   16   17 1    
    34   17   18 1    
    35   17   86 1    
    36   17   87 1    
    37   18   19 1    
    38   18   37 1    
    39   18   88 1    
    40   19   20 am   BACKBONE|DICT|INTERRES
    41   19   89 1    
    42   20   21 2    
    43   20   22 1    
    44   22   23 1    
    45   22   24 1    
    46   22   90 1    
    47   23   91 1    
    48   23   92 1    
    49   23   93 1    
    50   24   25 am   BACKBONE|DICT|INTERRES
    51   24   94 1    
    52   25   26 2    
    53   25   27 1    
    54   27   28 1    
    55   27   29 1    
    56   27   95 1    
    57   28   96 1    
    58   28   97 1    
    59   28   98 1    
    60   29   30 am   BACKBONE|DICT|INTERRES
    61   29   99 1    
    62   30   31 2    
    63   30   32 1    
    64   32   33 1    
    65   32   34 1    
    66   32  100 1    
    67   33  101 1    
    68   33  102 1    
    69   33  103 1    
    70   34   35 am   BACKBONE|DICT|INTERRES
    71   34  104 1    
    72   35   36 2    
    73   37   38 2    
    74   37   39 am   BACKBONE|DICT|INTERRES
    75   39   40 1    
    76   39  105 1    
    77   40   41 1    
    78   40   42 1    
    79   40  106 1    
    80   41  107 1    
    81   41  108 1    
    82   41  109 1    
    83   42   43 2    
    84   42   44 am   BACKBONE|DICT|INTERRES
    85   44   45 1    
    86   44  110 1    
    87   45   46 1    
    88   45   47 1    
    89   45  111 1    
    90   46  112 1    
    91   46  113 1    
    92   46  114 1    
    93   47   48 2    
    94   47   49 am   BACKBONE|DICT|INTERRES
    95   49   50 1    
    96   49  115 1    
    97   50   51 1    
    98   50   52 1    
    99   50  116 1    
   100   51  117 1    
   101   51  118 1    
   102   51  119 1    
   103   52   53 2    
   104   52   54 am   BACKBONE|DICT|INTERRES
   105   54   55 1    
   106   54  120 1    
   107   55   56 1    
   108   55   57 1    
   109   55  121 1    
   110   56  122 1    
   111   56  123 1    
   112   56  124 1    
   113   57   58 2    
   114   57   59 am   BACKBONE|DICT|INTERRES
   115   59   60 1    
   116   59  125 1    
   117   60   61 1    
   118   60   62 1    
   119   60  126 1    
   120   61  127 1    
   121   61  128 1    
   122   61  129 1    
   123   62   63 2    
   124   62   64 am   BACKBONE|DICT|INTERRES
   125   64   65 1    
   126   64  130 1    
   127   65   66 1    
   128   65   69 1    
   129   65  131 1    
   130   66   67 am   BACKBONE|DICT|INTERRES
   131   66   68 2    
   132   67  132 1    
   133   67  133 1    
   134   69   70 1    
   135   69  134 1    
   136   69  135 1    
   137   70   71 1    
   138   71  136 1    
   139   71  137 1    
@<TRIPOS>SUBSTRUCTURE
     1 UNK         1 GROUP             0       ****    0 ROOT    
