@<TRIPOS>MOLECULE
3R137
137   139    1
SMALL
USER_CHARGES


@<TRIPOS>ATOM
      1 CA         31.3970    0.9404   -0.0249 C.3       0 UNK        -0.2020 
      2 C          30.6211   -0.3649    0.0747 C.2       0 UNK         0.4855 
      3 O          30.3624   -0.8280    1.1858 O.2       0 UNK        -0.5197 
      4 N          30.2709   -0.9478   -1.0812 N.am      1 UNK        -0.4892 
      5 CA         29.4485   -2.1503   -1.2845 C.3       1 UNK         0.0835 
      6 C6         29.8476   -3.3423   -0.3679 C.3       12 UNK        -0.0855 
      7 S7         29.2043   -4.9632   -0.9075 S.3       12 UNK        -0.2931 
      8 C8         30.6585   -5.7198   -1.7014 C.3       12 UNK         0.0378 
      9 C9         30.8496   -5.2189   -3.1251 C.ar      12 UNK        -0.0802 
     10 C10        31.9738   -4.4628   -3.4743 C.ar      12 UNK        -0.0944 
     11 C11        32.1564   -4.0299   -4.7928 C.ar      12 UNK        -0.0787 
     12 C12        31.2030   -4.3623   -5.7603 C.ar      12 UNK        -0.0862 
     13 C13        30.0555   -5.0787   -5.4132 C.ar      12 UNK        -0.0733 
     14 C14        29.8960   -5.5257   -4.1001 C.ar      12 UNK        -0.0832 
     15 C15        28.9633   -5.3192   -6.4452 C.3       12 UNK         0.0240 
     16 S16        27.4664   -4.3457   -6.0710 S.3       12 UNK        -0.2522 
     17 C17        28.1218   -2.6427   -5.9780 C.3       12 UNK        -0.0967 
     18 CA         27.4033   -1.6687   -6.9342 C.3       5 UNK         0.0660 
     19 N          25.9598   -1.6046   -6.6891 N.am      5 UNK        -0.4015 
     20 C          25.0675   -1.0119   -7.4931 C.2       4 UNK         0.4946 
     21 O          25.3652   -0.4449   -8.5434 O.2       4 UNK        -0.5353 
     22 CA         23.6047   -1.0128   -7.0218 C.3       4 UNK         0.0277 
     23 CB         22.9498   -2.3792   -7.2805 C.3       4 UNK        -0.1981 
     24 N          23.4847   -0.6628   -5.6048 N.am      4 UNK        -0.4209 
     25 C          23.7542    0.5522   -5.1045 C.2       3 UNK         0.4942 
     26 O          24.0349    1.5303   -5.7971 O.2       3 UNK        -0.5208 
     27 CA         23.7464    0.6933   -3.5707 C.3       3 UNK         0.0250 
     28 CB         22.3459    1.0865   -3.0740 C.3       3 UNK        -0.1990 
     29 N          24.2046   -0.5032   -2.8507 N.am      3 UNK        -0.4232 
     30 C          25.4144   -1.0638   -2.9899 C.2       2 UNK         0.4993 
     31 O          26.2623   -0.6639   -3.7904 O.2       2 UNK        -0.5286 
     32 CA         25.6955   -2.3172   -2.1439 C.3       2 UNK         0.0209 
     33 CB         25.0720   -3.5578   -2.8052 C.3       2 UNK        -0.1931 
     34 N          27.1324   -2.5486   -1.9780 N.am      2 UNK        -0.4546 
     35 C          27.9436   -1.8025   -1.2167 C.2       1 UNK         0.5154 
     36 O          27.5371   -0.8878   -0.4941 O.2       1 UNK        -0.5181 
     37 C          28.0613   -0.2783   -6.8654 C.2       5 UNK         0.5014 
     38 O          28.9704   -0.0025   -7.6482 O.2       5 UNK        -0.5248 
     39 N          27.5741    0.5872   -5.9671 N.am      6 UNK        -0.4434 
     40 CA         27.9757    1.9909   -5.8566 C.3       6 UNK         0.0363 
     41 CB         27.3358    2.6106   -4.6058 C.3       6 UNK        -0.1936 
     42 C          27.6668    2.8284   -7.1112 C.2       6 UNK         0.5081 
     43 O          28.3517    3.8239   -7.3428 O.2       6 UNK        -0.5248 
     44 N          26.6744    2.4083   -7.9065 N.am      7 UNK        -0.4718 
     45 CA         26.3614    2.9899   -9.2094 C.3       7 UNK         0.0273 
     46 CB         24.8397    2.9610   -9.4325 C.3       7 UNK        -0.1935 
     47 C          27.1002    2.2537  -10.3384 C.2       7 UNK         0.5018 
     48 O          27.7696    2.9017  -11.1428 O.2       7 UNK        -0.5186 
     49 N          26.9488    0.9226  -10.3951 N.am      8 UNK        -0.4240 
     50 CA         27.4018    0.0823  -11.5069 C.3       8 UNK         0.0235 
     51 CB         26.6742   -1.2714  -11.4513 C.3       8 UNK        -0.2000 
     52 C          28.9218   -0.1322  -11.5623 C.2       8 UNK         0.4941 
     53 O          29.4949   -0.0726  -12.6509 O.2       8 UNK        -0.5273 
     54 N          29.5405   -0.4010  -10.4063 N.am      9 UNK        -0.4262 
     55 CA         30.9683   -0.7115  -10.2738 C.3       9 UNK         0.0264 
     56 CB         31.1155   -1.9844   -9.4193 C.3       9 UNK        -0.1955 
     57 C          31.7677    0.4495   -9.6568 C.2       9 UNK         0.5031 
     58 O          32.9941    0.3581   -9.5928 O.2       9 UNK        -0.5390 
     59 N          31.0681    1.5009   -9.2023 N.am      10 UNK        -0.4204 
     60 CA         31.5706    2.6638   -8.4602 C.3       10 UNK         0.0237 
     61 CB         32.5813    3.4773   -9.2974 C.3       10 UNK        -0.1985 
     62 C          32.1004    2.3111   -7.0543 C.2       10 UNK         0.4970 
     63 O          32.8996    3.0682   -6.4996 O.2       10 UNK        -0.4914 
     64 N          31.6353    1.1900   -6.4864 N.am      11 UNK        -0.4285 
     65 CA         31.9949    0.6997   -5.1466 C.3       11 UNK         0.1007 
     66 C          31.2303    1.4555   -4.0248 C.2       11 UNK         0.5703 
     67 N          31.3866    2.7679   -3.9264 N.am      11 UNK        -0.7361 
     68 O          30.4863    0.8614   -3.2490 O.2       11 UNK        -0.4986 
     69 C69        31.8407   -0.8400   -5.0432 C.3       12 UNK        -0.0947 
     70 S70        32.9701   -1.7277   -6.1643 S.3       12 UNK        -0.2240 
     71 C71        33.3815   -3.2013   -5.1681 C.3       12 UNK         0.0194 
     72 H72        31.9705    0.9967   -0.9496 H         1 UNK         0.0906 
     73 H73        30.7122    1.7872    0.0079 H         1 UNK         0.0906 
     74 H74        32.0962    1.0332    0.8058 H         1 UNK         0.0906 
     75 H75        30.4391   -0.4130   -1.9327 H         1 UNK         0.3140 
     76 H76        29.6570   -2.4460   -2.3147 H         1 UNK         0.1085 
     77 H77        29.4957   -3.1766    0.6516 H         1 UNK         0.0836 
     78 H78        30.9344   -3.4045   -0.2973 H         1 UNK         0.0836 
     79 H79        31.5491   -5.5478   -1.0950 H         1 UNK         0.0731 
     80 H80        30.5164   -6.8011   -1.7282 H         1 UNK         0.0731 
     81 H81        32.7093   -4.2157   -2.7208 H         1 UNK         0.1312 
     82 H82        31.3349   -4.0227   -6.7785 H         1 UNK         0.1406 
     83 H83        29.0119   -6.0875   -3.8292 H         1 UNK         0.1631 
     84 H84        28.7059   -6.3791   -6.4638 H         1 UNK         0.0717 
     85 H85        29.3105   -5.0671   -7.4485 H         1 UNK         0.0717 
     86 H86        28.0482   -2.3050   -4.9427 H         1 UNK         0.0934 
     87 H87        29.1849   -2.6494   -6.2158 H         1 UNK         0.0934 
     88 H88        27.5424   -2.0357   -7.9535 H         1 UNK         0.0739 
     89 H89        25.6429   -2.0090   -5.8213 H         1 UNK         0.3093 
     90 H90        23.0681   -0.2611   -7.6053 H         1 UNK         0.0818 
     91 H91        21.8909   -2.3660   -7.0219 H         1 UNK         0.0819 
     92 H92        23.0201   -2.6499   -8.3350 H         1 UNK         0.0819 
     93 H93        23.4256   -3.1763   -6.7076 H         1 UNK         0.0819 
     94 H94        23.2388   -1.4024   -4.9634 H         1 UNK         0.3041 
     95 H95        24.4347    1.5031   -3.3196 H         1 UNK         0.0784 
     96 H96        21.9920    1.9871   -3.5782 H         1 UNK         0.0793 
     97 H97        21.6139    0.2997   -3.2608 H         1 UNK         0.0793 
     98 H98        22.3481    1.2977   -2.0045 H         1 UNK         0.0793 
     99 H99        23.5573   -0.9012   -2.1850 H         1 UNK         0.3024 
    100 H100       25.2531   -2.1766   -1.1550 H         1 UNK         0.1171 
    101 H101       23.9912   -3.4520   -2.9063 H         1 UNK         0.0786 
    102 H102       25.2512   -4.4544   -2.2112 H         1 UNK         0.0786 
    103 H103       25.4778   -3.7326   -3.8022 H         1 UNK         0.0786 
    104 H104       27.5352   -3.2924   -2.5294 H         1 UNK         0.2977 
    105 H105       26.9011    0.2445   -5.2831 H         1 UNK         0.3127 
    106 H106       29.0563    2.0122   -5.7270 H         1 UNK         0.0770 
    107 H107       26.2489    2.6353   -4.6803 H         1 UNK         0.0814 
    108 H108       27.6772    3.6364   -4.4620 H         1 UNK         0.0814 
    109 H109       27.6007    2.0511   -3.7079 H         1 UNK         0.0814 
    110 H110       26.1560    1.5812   -7.6394 H         1 UNK         0.2983 
    111 H111       26.6773    4.0356   -9.2325 H         1 UNK         0.0947 
    112 H112       24.5790    3.3934  -10.3994 H         1 UNK         0.0806 
    113 H113       24.3196    3.5387   -8.6681 H         1 UNK         0.0806 
    114 H114       24.4391    1.9471   -9.4094 H         1 UNK         0.0806 
    115 H115       26.3699    0.4644   -9.6907 H         1 UNK         0.3000 
    116 H116       27.1100    0.5776  -12.4358 H         1 UNK         0.0850 
    117 H117       26.9660   -1.9081  -12.2877 H         1 UNK         0.0810 
    118 H118       25.5930   -1.1420  -11.5043 H         1 UNK         0.0810 
    119 H119       26.8989   -1.8146  -10.5325 H         1 UNK         0.0810 
    120 H120       29.0109   -0.3878   -9.5393 H         1 UNK         0.3040 
    121 H121       31.4059   -0.9134  -11.2536 H         1 UNK         0.0766 
    122 H122       32.1629   -2.2753   -9.3282 H         1 UNK         0.0812 
    123 H123       30.5845   -2.8253   -9.8652 H         1 UNK         0.0812 
    124 H124       30.7315   -1.8435   -8.4088 H         1 UNK         0.0812 
    125 H125       30.0624    1.4432   -9.2848 H         1 UNK         0.3205 
    126 H126       30.7060    3.3058   -8.2965 H         1 UNK         0.0754 
    127 H127       32.8132    4.4272   -8.8143 H         1 UNK         0.0769 
    128 H128       32.1833    3.7075  -10.2857 H         1 UNK         0.0769 
    129 H129       33.5234    2.9446   -9.4294 H         1 UNK         0.0769 
    130 H130       30.9447    0.6452   -6.9877 H         1 UNK         0.2981 
    131 H131       33.0509    0.9178   -4.9756 H         1 UNK         0.0541 
    132 H132       30.8978    3.2777   -3.2086 H         1 UNK         0.3459 
    133 H133       31.9879    3.2495   -4.5824 H         1 UNK         0.3459 
    134 H134       30.8161   -1.1415   -5.2641 H         1 UNK         0.0612 
    135 H135       32.0451   -1.1708   -4.0231 H         1 UNK         0.0612 
    136 H136       34.0690   -3.8283   -5.7370 H         1 UNK         0.0624 
    137 H137       33.9203   -2.8788   -4.2758 H         1 UNK         0.0624 
@<TRIPOS>BOND
     1    1    2 1    
     2    1   72 1    
     3    1   73 1    
     4    1   74 1    
     5    2    3 2    
     6    2    4 am   BACKBONE|DICT|INTERRES
     7    4    5 1    
     8    4   75 1    
     9    5    6 1    
    10    5   35 1    
    11    5   76 1    
    12    6    7 1    
    13    6   77 1    
    14    6   78 1    
    15    7    8 1    
    16    8    9 1    
    17    8   79 1    
    18    8   80 1    
    19    9   10 ar   
    20    9   14 ar   
    21   10   11 ar   
    22   10   81 1    
    23   11   12 ar   
    24   11   71 1    
    25   12   13 ar   
    26   12   82 1    
    27   13   14 ar   
    28   13   15 1    
    29   14   83 1    
    30   15   16 1    
    31   15   84 1    
    32   15   85 1    
    33   16   17 1    
    34   17   18 1    
    35   17   86 1    
    36   17   87 1    
    37   18   19 1    
    38   18   37 1    
    39   18   88 1    
    40   19   20 am   BACKBONE|DICT|INTERRES
    41   19   89 1    
    42   20   21 2    
    43   20   22 1    
    44   22   23 1    
    45   22   24 1    
    46   22   90 1    
    47   23   91 1    
    48   23   92 1    
    49   23   93 1    
    50   24   25 am   BACKBONE|DICT|INTERRES
    51   24   94 1    
    52   25   26 2    
    53   25   27 1    
    54   27   28 1    
    55   27   29 1    
    56   27   95 1    
    57   28   96 1    
    58   28   97 1    
    59   28   98 1    
    60   29   30 am   BACKBONE|DICT|INTERRES
    61   29   99 1    
    62   30   31 2    
    63   30   32 1    
    64   32   33 1    
    65   32   34 1    
    66   32  100 1    
    67   33  101 1    
    68   33  102 1    
    69   33  103 1    
    70   34   35 am   BACKBONE|DICT|INTERRES
    71   34  104 1    
    72   35   36 2    
    73   37   38 2    
    74   37   39 am   BACKBONE|DICT|INTERRES
    75   39   40 1    
    76   39  105 1    
    77   40   41 1    
    78   40   42 1    
    79   40  106 1    
    80   41  107 1    
    81   41  108 1    
    82   41  109 1    
    83   42   43 2    
    84   42   44 am   BACKBONE|DICT|INTERRES
    85   44   45 1    
    86   44  110 1    
    87   45   46 1    
    88   45   47 1    
    89   45  111 1    
    90   46  112 1    
    91   46  113 1    
    92   46  114 1    
    93   47   48 2    
    94   47   49 am   BACKBONE|DICT|INTERRES
    95   49   50 1    
    96   49  115 1    
    97   50   51 1    
    98   50   52 1    
    99   50  116 1    
   100   51  117 1    
   101   51  118 1    
   102   51  119 1    
   103   52   53 2    
   104   52   54 am   BACKBONE|DICT|INTERRES
   105   54   55 1    
   106   54  120 1    
   107   55   56 1    
   108   55   57 1    
   109   55  121 1    
   110   56  122 1    
   111   56  123 1    
   112   56  124 1    
   113   57   58 2    
   114   57   59 am   BACKBONE|DICT|INTERRES
   115   59   60 1    
   116   59  125 1    
   117   60   61 1    
   118   60   62 1    
   119   60  126 1    
   120   61  127 1    
   121   61  128 1    
   122   61  129 1    
   123   62   63 2    
   124   62   64 am   BACKBONE|DICT|INTERRES
   125   64   65 1    
   126   64  130 1    
   127   65   66 1    
   128   65   69 1    
   129   65  131 1    
   130   66   67 am   BACKBONE|DICT|INTERRES
   131   66   68 2    
   132   67  132 1    
   133   67  133 1    
   134   69   70 1    
   135   69  134 1    
   136   69  135 1    
   137   70   71 1    
   138   71  136 1    
   139   71  137 1    
@<TRIPOS>SUBSTRUCTURE
     1 UNK         1 GROUP             0       ****    0 ROOT    
