@<TRIPOS>MOLECULE
3R137
137   139    1
SMALL
USER_CHARGES


@<TRIPOS>ATOM
      1 CA         26.3491   -6.4992   -4.6368 C.3       0 UNK        -0.2020 
      2 C          26.0733   -5.5436   -3.4864 C.2       0 UNK         0.4855 
      3 O          24.9562   -5.0386   -3.3688 O.2       0 UNK        -0.5197 
      4 N          27.0848   -5.2910   -2.6435 N.am      1 UNK        -0.4892 
      5 CA         27.0544   -4.3629   -1.5067 C.3       1 UNK         0.0835 
      6 C6         28.3916   -4.3110   -0.7036 C.3       12 UNK        -0.0855 
      7 S7         30.0104   -4.5544   -1.5468 S.3       12 UNK        -0.2931 
      8 C8         29.9138   -3.7825   -3.2004 C.3       12 UNK         0.0378 
      9 C9         30.3931   -2.3355   -3.2782 C.ar      12 UNK        -0.0802 
     10 C10        31.0939   -1.9140   -4.4133 C.ar      12 UNK        -0.0944 
     11 C11        31.5155   -0.5879   -4.5428 C.ar      12 UNK        -0.0787 
     12 C12        31.2316    0.3254   -3.5254 C.ar      12 UNK        -0.0862 
     13 C13        30.5028   -0.0711   -2.4014 C.ar      12 UNK        -0.0733 
     14 C14        30.0946   -1.4033   -2.2789 C.ar      12 UNK        -0.0832 
     15 C15        30.1156    0.9523   -1.3429 C.3       12 UNK         0.0240 
     16 S16        28.9538    2.2017   -1.9919 S.3       12 UNK        -0.2522 
     17 C17        27.6200    1.1607   -2.6739 C.3       12 UNK        -0.0967 
     18 CA         27.6526    1.1070   -4.2264 C.3       5 UNK         0.0660 
     19 N          27.2371   -0.1978   -4.7475 N.am      5 UNK        -0.4015 
     20 C          27.2906   -0.5704   -6.0351 C.2       4 UNK         0.4946 
     21 O          27.8223    0.0963   -6.9245 O.2       4 UNK        -0.5353 
     22 CA         26.5823   -1.8845   -6.4097 C.3       4 UNK         0.0277 
     23 CB         27.5400   -3.0811   -6.3572 C.3       4 UNK        -0.1981 
     24 N          25.4131   -2.1512   -5.5676 N.am      4 UNK        -0.4209 
     25 C          24.2657   -1.4624   -5.6398 C.2       3 UNK         0.4942 
     26 O          24.0530   -0.5709   -6.4606 O.2       3 UNK        -0.5208 
     27 CA         23.1982   -1.7864   -4.5833 C.3       3 UNK         0.0250 
     28 CB         22.4357   -3.0704   -4.9462 C.3       3 UNK        -0.1990 
     29 N          23.7675   -1.9014   -3.2375 N.am      3 UNK        -0.4232 
     30 C          24.2918   -0.8685   -2.5607 C.2       2 UNK         0.4993 
     31 O          24.3226    0.2827   -2.9932 O.2       2 UNK        -0.5286 
     32 CA         24.9238   -1.1566   -1.1879 C.3       2 UNK         0.0209 
     33 CB         23.8766   -0.9903   -0.0754 C.3       2 UNK        -0.1931 
     34 N          25.5598   -2.4721   -1.0640 N.am      2 UNK        -0.4546 
     35 C          26.5234   -2.9556   -1.8616 C.2       1 UNK         0.5154 
     36 O          26.9690   -2.3482   -2.8370 O.2       1 UNK        -0.5181 
     37 C          26.8278    2.2501   -4.8532 C.2       5 UNK         0.5014 
     38 O          27.4071    3.1823   -5.4116 O.2       5 UNK        -0.5248 
     39 N          25.4920    2.1348   -4.7864 N.am      6 UNK        -0.4434 
     40 CA         24.5323    3.0833   -5.3597 C.3       6 UNK         0.0363 
     41 CB         23.1097    2.7046   -4.9184 C.3       6 UNK        -0.1936 
     42 C          24.6132    3.1837   -6.8921 C.2       6 UNK         0.5081 
     43 O          24.4926    4.2838   -7.4317 O.2       6 UNK        -0.5248 
     44 N          24.8420    2.0470   -7.5643 N.am      7 UNK        -0.4718 
     45 CA         25.0671    1.9677   -9.0113 C.3       7 UNK         0.0273 
     46 CB         24.9106    0.5075   -9.4649 C.3       7 UNK        -0.1935 
     47 C          26.4353    2.5174   -9.4600 C.2       7 UNK         0.5018 
     48 O          26.6108    2.7521  -10.6563 O.2       7 UNK        -0.5186 
     49 N          27.3680    2.6971   -8.5113 N.am      8 UNK        -0.4240 
     50 CA         28.7610    3.1184   -8.6870 C.3       8 UNK         0.0235 
     51 CB         28.8398    4.5771   -9.1860 C.3       8 UNK        -0.2000 
     52 C          29.5523    2.1278   -9.5604 C.2       8 UNK         0.4941 
     53 O          30.1394    2.5219  -10.5713 O.2       8 UNK        -0.5273 
     54 N          29.5228    0.8481   -9.1615 N.am      9 UNK        -0.4262 
     55 CA         30.2234   -0.2587   -9.8185 C.3       9 UNK         0.0264 
     56 CB         29.8233   -1.5725   -9.1284 C.3       9 UNK        -0.1955 
     57 C          31.7555   -0.0967   -9.8129 C.2       9 UNK         0.5031 
     58 O          32.3111    0.5730   -8.9384 O.2       9 UNK        -0.5390 
     59 N          32.4222   -0.7542  -10.7692 N.am      10 UNK        -0.4204 
     60 CA         33.8781   -0.7496  -10.9385 C.3       10 UNK         0.0237 
     61 CB         34.2081   -1.0772  -12.4077 C.3       10 UNK        -0.1985 
     62 C          34.5847   -1.6956   -9.9455 C.2       10 UNK         0.4970 
     63 O          35.2505   -2.6439  -10.3657 O.2       10 UNK        -0.4914 
     64 N          34.4209   -1.4273   -8.6449 N.am      11 UNK        -0.4285 
     65 CA         35.0747   -2.1551   -7.5438 C.3       11 UNK         0.1007 
     66 C          36.5908   -1.8472   -7.3575 C.2       11 UNK         0.5703 
     67 N          37.1516   -0.8336   -8.0074 N.am      11 UNK        -0.7361 
     68 O          37.2746   -2.5544   -6.6210 O.2       11 UNK        -0.4986 
     69 C69        34.2814   -2.0318   -6.2151 C.3       12 UNK        -0.0947 
     70 S70        34.0392   -0.3083   -5.6565 S.3       12 UNK        -0.2240 
     71 C71        32.2353   -0.1234   -5.7983 C.3       12 UNK         0.0194 
     72 H72        27.3961   -6.7989   -4.6772 H         1 UNK         0.0906 
     73 H73        25.7410   -7.3971   -4.5310 H         1 UNK         0.0906 
     74 H74        26.0955   -6.0266   -5.5852 H         1 UNK         0.0906 
     75 H75        27.9759   -5.7434   -2.7907 H         1 UNK         0.3140 
     76 H76        26.3117   -4.7952   -0.8320 H         1 UNK         0.1085 
     77 H77        28.4557   -3.3971   -0.1097 H         1 UNK         0.0836 
     78 H78        28.3505   -5.1033    0.0457 H         1 UNK         0.0836 
     79 H79        28.9074   -3.8320   -3.5908 H         1 UNK         0.0731 
     80 H80        30.5181   -4.3977   -3.8689 H         1 UNK         0.0731 
     81 H81        31.2977   -2.6178   -5.2077 H         1 UNK         0.1312 
     82 H82        31.5411    1.3568   -3.6257 H         1 UNK         0.1406 
     83 H83        29.5188   -1.7084   -1.4180 H         1 UNK         0.1631 
     84 H84        31.0135    1.4549   -0.9808 H         1 UNK         0.0717 
     85 H85        29.6646    0.4654   -0.4768 H         1 UNK         0.0717 
     86 H86        27.7226    0.1603   -2.2548 H         1 UNK         0.0934 
     87 H87        26.6645    1.5286   -2.2953 H         1 UNK         0.0934 
     88 H88        28.6847    1.2352   -4.5593 H         1 UNK         0.0739 
     89 H89        26.8832   -0.8690   -4.0720 H         1 UNK         0.3093 
     90 H90        26.2420   -1.7815   -7.4415 H         1 UNK         0.0818 
     91 H91        27.7793   -3.3456   -5.3323 H         1 UNK         0.0819 
     92 H92        27.1014   -3.9575   -6.8339 H         1 UNK         0.0819 
     93 H93        28.4779   -2.8676   -6.8690 H         1 UNK         0.0819 
     94 H94        25.5224   -2.8306   -4.8263 H         1 UNK         0.3041 
     95 H95        22.4826   -0.9611   -4.5744 H         1 UNK         0.0784 
     96 H96        21.9747   -2.9827   -5.9311 H         1 UNK         0.0793 
     97 H97        23.0914   -3.9412   -4.9711 H         1 UNK         0.0793 
     98 H98        21.6371   -3.2725   -4.2324 H         1 UNK         0.0793 
     99 H99        23.8221   -2.8284   -2.8362 H         1 UNK         0.3024 
    100 H100       25.7010   -0.4075   -1.0294 H         1 UNK         0.1171 
    101 H101       23.4023   -0.0091   -0.1293 H         1 UNK         0.0786 
    102 H102       24.3289   -1.0735    0.9131 H         1 UNK         0.0786 
    103 H103       23.0862   -1.7384   -0.1487 H         1 UNK         0.0786 
    104 H104       25.2406   -3.0436   -0.2946 H         1 UNK         0.2977 
    105 H105       25.0929    1.3545   -4.2655 H         1 UNK         0.3127 
    106 H106       24.7641    4.0700   -4.9533 H         1 UNK         0.0770 
    107 H107       22.8335    1.7073   -5.2633 H         1 UNK         0.0814 
    108 H108       22.3758    3.4052   -5.3188 H         1 UNK         0.0814 
    109 H109       23.0144    2.7198   -3.8326 H         1 UNK         0.0814 
    110 H110       24.8392    1.1683   -7.0536 H         1 UNK         0.2983 
    111 H111       24.2991    2.5646   -9.5079 H         1 UNK         0.0947 
    112 H112       25.0032    0.4220  -10.5484 H         1 UNK         0.0806 
    113 H113       23.9346    0.1065   -9.1907 H         1 UNK         0.0806 
    114 H114       25.6745   -0.1314   -9.0222 H         1 UNK         0.0806 
    115 H115       27.1152    2.4508   -7.5617 H         1 UNK         0.3000 
    116 H116       29.2163    3.0851   -7.6957 H         1 UNK         0.0850 
    117 H117       29.8744    4.9203   -9.2198 H         1 UNK         0.0810 
    118 H118       28.2955    5.2506   -8.5240 H         1 UNK         0.0810 
    119 H119       28.4286    4.6880  -10.1898 H         1 UNK         0.0810 
    120 H120       28.9873    0.6149   -8.3270 H         1 UNK         0.3040 
    121 H121       29.8858   -0.2888  -10.8565 H         1 UNK         0.0766 
    122 H122       28.7451   -1.7289   -9.1718 H         1 UNK         0.0812 
    123 H123       30.1196   -1.5772   -8.0791 H         1 UNK         0.0812 
    124 H124       30.2940   -2.4331   -9.6051 H         1 UNK         0.0812 
    125 H125       31.8987   -1.3192  -11.4228 H         1 UNK         0.3205 
    126 H126       34.2494    0.2578  -10.7377 H         1 UNK         0.0754 
    127 H127       35.2845   -1.0462  -12.5833 H         1 UNK         0.0769 
    128 H128       33.7521   -0.3563  -13.0867 H         1 UNK         0.0769 
    129 H129       33.8597   -2.0715  -12.6901 H         1 UNK         0.0769 
    130 H130       33.8417   -0.6343   -8.3868 H         1 UNK         0.2981 
    131 H131       35.0431   -3.2129   -7.8121 H         1 UNK         0.0541 
    132 H132       36.5991   -0.2416   -8.6056 H         1 UNK         0.3459 
    133 H133       38.1346   -0.6505   -7.8822 H         1 UNK         0.3459 
    134 H134       33.3126   -2.5149   -6.3382 H         1 UNK         0.0612 
    135 H135       34.7768   -2.5843   -5.4148 H         1 UNK         0.0612 
    136 H136       31.8691   -0.6737   -6.6646 H         1 UNK         0.0624 
    137 H137       32.0057    0.9256   -5.9915 H         1 UNK         0.0624 
@<TRIPOS>BOND
     1    1    2 1    
     2    1   72 1    
     3    1   73 1    
     4    1   74 1    
     5    2    3 2    
     6    2    4 am   BACKBONE|DICT|INTERRES
     7    4    5 1    
     8    4   75 1    
     9    5    6 1    
    10    5   35 1    
    11    5   76 1    
    12    6    7 1    
    13    6   77 1    
    14    6   78 1    
    15    7    8 1    
    16    8    9 1    
    17    8   79 1    
    18    8   80 1    
    19    9   10 ar   
    20    9   14 ar   
    21   10   11 ar   
    22   10   81 1    
    23   11   12 ar   
    24   11   71 1    
    25   12   13 ar   
    26   12   82 1    
    27   13   14 ar   
    28   13   15 1    
    29   14   83 1    
    30   15   16 1    
    31   15   84 1    
    32   15   85 1    
    33   16   17 1    
    34   17   18 1    
    35   17   86 1    
    36   17   87 1    
    37   18   19 1    
    38   18   37 1    
    39   18   88 1    
    40   19   20 am   BACKBONE|DICT|INTERRES
    41   19   89 1    
    42   20   21 2    
    43   20   22 1    
    44   22   23 1    
    45   22   24 1    
    46   22   90 1    
    47   23   91 1    
    48   23   92 1    
    49   23   93 1    
    50   24   25 am   BACKBONE|DICT|INTERRES
    51   24   94 1    
    52   25   26 2    
    53   25   27 1    
    54   27   28 1    
    55   27   29 1    
    56   27   95 1    
    57   28   96 1    
    58   28   97 1    
    59   28   98 1    
    60   29   30 am   BACKBONE|DICT|INTERRES
    61   29   99 1    
    62   30   31 2    
    63   30   32 1    
    64   32   33 1    
    65   32   34 1    
    66   32  100 1    
    67   33  101 1    
    68   33  102 1    
    69   33  103 1    
    70   34   35 am   BACKBONE|DICT|INTERRES
    71   34  104 1    
    72   35   36 2    
    73   37   38 2    
    74   37   39 am   BACKBONE|DICT|INTERRES
    75   39   40 1    
    76   39  105 1    
    77   40   41 1    
    78   40   42 1    
    79   40  106 1    
    80   41  107 1    
    81   41  108 1    
    82   41  109 1    
    83   42   43 2    
    84   42   44 am   BACKBONE|DICT|INTERRES
    85   44   45 1    
    86   44  110 1    
    87   45   46 1    
    88   45   47 1    
    89   45  111 1    
    90   46  112 1    
    91   46  113 1    
    92   46  114 1    
    93   47   48 2    
    94   47   49 am   BACKBONE|DICT|INTERRES
    95   49   50 1    
    96   49  115 1    
    97   50   51 1    
    98   50   52 1    
    99   50  116 1    
   100   51  117 1    
   101   51  118 1    
   102   51  119 1    
   103   52   53 2    
   104   52   54 am   BACKBONE|DICT|INTERRES
   105   54   55 1    
   106   54  120 1    
   107   55   56 1    
   108   55   57 1    
   109   55  121 1    
   110   56  122 1    
   111   56  123 1    
   112   56  124 1    
   113   57   58 2    
   114   57   59 am   BACKBONE|DICT|INTERRES
   115   59   60 1    
   116   59  125 1    
   117   60   61 1    
   118   60   62 1    
   119   60  126 1    
   120   61  127 1    
   121   61  128 1    
   122   61  129 1    
   123   62   63 2    
   124   62   64 am   BACKBONE|DICT|INTERRES
   125   64   65 1    
   126   64  130 1    
   127   65   66 1    
   128   65   69 1    
   129   65  131 1    
   130   66   67 am   BACKBONE|DICT|INTERRES
   131   66   68 2    
   132   67  132 1    
   133   67  133 1    
   134   69   70 1    
   135   69  134 1    
   136   69  135 1    
   137   70   71 1    
   138   71  136 1    
   139   71  137 1    
@<TRIPOS>SUBSTRUCTURE
     1 UNK         1 GROUP             0       ****    0 ROOT    
