@<TRIPOS>MOLECULE
3R137
137   139    1
SMALL
USER_CHARGES


@<TRIPOS>ATOM
      1 CA         24.5065   -2.5377   -8.8284 C.3       0 UNK        -0.2020 
      2 C          25.4286   -3.4600   -8.0447 C.2       0 UNK         0.4855 
      3 O          25.5472   -4.6365   -8.3896 O.2       0 UNK        -0.5197 
      4 N          26.0755   -2.9407   -6.9939 N.am      1 UNK        -0.4892 
      5 CA         26.8708   -3.7210   -6.0417 C.3       1 UNK         0.0835 
      6 C6         28.0184   -2.8629   -5.4397 C.3       12 UNK        -0.0855 
      7 S7         29.5169   -3.8571   -5.1253 S.3       12 UNK        -0.2931 
      8 C8         29.7223   -3.7248   -3.3182 C.3       12 UNK         0.0378 
      9 C9         30.1184   -2.3257   -2.8671 C.ar      12 UNK        -0.0802 
     10 C10        31.2670   -1.7151   -3.3784 C.ar      12 UNK        -0.0944 
     11 C11        31.6476   -0.4419   -2.9460 C.ar      12 UNK        -0.0787 
     12 C12        30.8739    0.2231   -1.9907 C.ar      12 UNK        -0.0862 
     13 C13        29.7312   -0.3837   -1.4599 C.ar      12 UNK        -0.0733 
     14 C14        29.3587   -1.6565   -1.9034 C.ar      12 UNK        -0.0832 
     15 C15        28.9203    0.3178   -0.3791 C.3       12 UNK         0.0240 
     16 S16        27.1895    0.5907   -0.8706 S.3       12 UNK        -0.2522 
     17 C17        27.3706    1.7693   -2.2522 C.3       12 UNK        -0.0967 
     18 CA         27.0247    1.1490   -3.6301 C.3       5 UNK         0.0660 
     19 N          25.7042    0.5012   -3.6165 N.am      5 UNK        -0.4015 
     20 C          25.1355   -0.1819   -4.6180 C.2       4 UNK         0.4946 
     21 O          25.6713   -0.3841   -5.7115 O.2       4 UNK        -0.5353 
     22 CA         23.7215   -0.7105   -4.3329 C.3       4 UNK         0.0277 
     23 CB         22.9909   -1.1855   -5.6017 C.3       4 UNK        -0.1981 
     24 N          23.7656   -1.7996   -3.3560 N.am      4 UNK        -0.4209 
     25 C          23.7241   -1.6325   -2.0258 C.2       3 UNK         0.4942 
     26 O          23.6746   -0.5228   -1.4930 O.2       3 UNK        -0.5208 
     27 CA         23.7171   -2.8878   -1.1312 C.3       3 UNK         0.0250 
     28 CB         22.2893   -3.1855   -0.6443 C.3       3 UNK        -0.1990 
     29 N          24.2501   -4.0790   -1.7960 N.am      3 UNK        -0.4232 
     30 C          25.5544   -4.3589   -1.9119 C.2       2 UNK         0.4993 
     31 O          26.4464   -3.6810   -1.4025 O.2       2 UNK        -0.5286 
     32 CA         25.9500   -5.5705   -2.7805 C.3       2 UNK         0.0209 
     33 CB         24.8065   -6.5820   -3.0278 C.3       2 UNK        -0.1931 
     34 N          26.5399   -5.1143   -4.0464 N.am      2 UNK        -0.4546 
     35 C          25.9570   -4.3059   -4.9430 C.2       1 UNK         0.5154 
     36 O          24.7658   -3.9867   -4.8867 O.2       1 UNK        -0.5181 
     37 C          27.1579    2.2306   -4.7260 C.2       5 UNK         0.5014 
     38 O          28.2651    2.4875   -5.2010 O.2       5 UNK        -0.5248 
     39 N          26.0232    2.8331   -5.1156 N.am      6 UNK        -0.4434 
     40 CA         25.8843    3.8784   -6.1345 C.3       6 UNK         0.0363 
     41 CB         24.4340    4.3910   -6.1161 C.3       6 UNK        -0.1936 
     42 C          26.2923    3.4651   -7.5633 C.2       6 UNK         0.5081 
     43 O          26.3658    4.3358   -8.4309 O.2       6 UNK        -0.5248 
     44 N          26.5594    2.1698   -7.7922 N.am      7 UNK        -0.4718 
     45 CA         27.1011    1.6233   -9.0402 C.3       7 UNK         0.0273 
     46 CB         27.2247    0.0982   -8.9065 C.3       7 UNK        -0.1935 
     47 C          28.4592    2.2261   -9.4418 C.2       7 UNK         0.5018 
     48 O          28.7151    2.3726  -10.6377 O.2       7 UNK        -0.5186 
     49 N          29.2901    2.5623   -8.4409 N.am      8 UNK        -0.4240 
     50 CA         30.6062    3.2159   -8.5074 C.3       8 UNK         0.0235 
     51 CB         30.4944    4.6396   -9.0863 C.3       8 UNK        -0.2000 
     52 C          31.6990    2.4068   -9.2285 C.2       8 UNK         0.4941 
     53 O          32.7501    2.1599   -8.6400 O.2       8 UNK        -0.5273 
     54 N          31.4365    1.9784  -10.4700 N.am      9 UNK        -0.4262 
     55 CA         32.3300    1.1610  -11.2996 C.3       9 UNK         0.0264 
     56 CB         31.7235    1.0088  -12.7032 C.3       9 UNK        -0.1955 
     57 C          32.6323   -0.2182  -10.6881 C.2       9 UNK         0.5031 
     58 O          33.7256   -0.7483  -10.8910 O.2       9 UNK        -0.5390 
     59 N          31.6796   -0.7438   -9.9044 N.am      10 UNK        -0.4204 
     60 CA         31.8037   -1.9664   -9.1079 C.3       10 UNK         0.0237 
     61 CB         30.4426   -2.2795   -8.4655 C.3       10 UNK        -0.1985 
     62 C          32.9043   -1.9020   -8.0297 C.2       10 UNK         0.4970 
     63 O          33.3894   -2.9547   -7.6137 O.2       10 UNK        -0.4914 
     64 N          33.2880   -0.6885   -7.6092 N.am      11 UNK        -0.4285 
     65 CA         34.3909   -0.4385   -6.6706 C.3       11 UNK         0.1007 
     66 C          35.8020   -0.5111   -7.3246 C.2       11 UNK         0.5703 
     67 N          35.9303   -0.6446   -8.6412 N.am      11 UNK        -0.7361 
     68 O          36.8061   -0.4585   -6.6182 O.2       11 UNK        -0.4986 
     69 C69        34.2003    0.8899   -5.8873 C.3       12 UNK        -0.0947 
     70 S70        32.5636    1.0142   -5.0909 S.3       12 UNK        -0.2240 
     71 C71        32.9057    0.1986   -3.5053 C.3       12 UNK         0.0194 
     72 H72        24.3348   -1.5953   -8.3094 H         1 UNK         0.0906 
     73 H73        24.9344   -2.3197   -9.8064 H         1 UNK         0.0906 
     74 H74        23.5386   -3.0152   -8.9784 H         1 UNK         0.0906 
     75 H75        25.8935   -1.9808   -6.7060 H         1 UNK         0.3140 
     76 H76        27.3072   -4.5652   -6.5808 H         1 UNK         0.1085 
     77 H77        27.7053   -2.3302   -4.5387 H         1 UNK         0.0836 
     78 H78        28.3133   -2.0818   -6.1422 H         1 UNK         0.0836 
     79 H79        30.5005   -4.4221   -3.0053 H         1 UNK         0.0731 
     80 H80        28.8074   -4.0476   -2.8216 H         1 UNK         0.0731 
     81 H81        31.8643   -2.2312   -4.1182 H         1 UNK         0.1312 
     82 H82        31.1710    1.2064   -1.6521 H         1 UNK         0.1406 
     83 H83        28.4771   -2.1251   -1.4876 H         1 UNK         0.1631 
     84 H84        29.3692    1.2744   -0.1070 H         1 UNK         0.0717 
     85 H85        28.9346   -0.2945    0.5235 H         1 UNK         0.0717 
     86 H86        26.7210    2.6212   -2.0405 H         1 UNK         0.0934 
     87 H87        28.3885    2.1651   -2.2593 H         1 UNK         0.0934 
     88 H88        27.7600    0.3727   -3.8535 H         1 UNK         0.0739 
     89 H89        25.2042    0.5441   -2.7356 H         1 UNK         0.3093 
     90 H90        23.1407    0.1207   -3.9267 H         1 UNK         0.0818 
     91 H91        23.4672   -2.0581   -6.0448 H         1 UNK         0.0819 
     92 H92        21.9564   -1.4503   -5.3833 H         1 UNK         0.0819 
     93 H93        22.9710   -0.4013   -6.3596 H         1 UNK         0.0819 
     94 H94        23.9131   -2.7300   -3.7405 H         1 UNK         0.3041 
     95 H95        24.3326   -2.6661   -0.2563 H         1 UNK         0.0784 
     96 H96        21.8707   -2.3280   -0.1153 H         1 UNK         0.0793 
     97 H97        21.6187   -3.4160   -1.4731 H         1 UNK         0.0793 
     98 H98        22.2733   -4.0288    0.0464 H         1 UNK         0.0793 
     99 H99        23.5878   -4.6740   -2.2732 H         1 UNK         0.3024 
    100 H100       26.7370   -6.0913   -2.2320 H         1 UNK         0.1171 
    101 H101       25.1752   -7.4593   -3.5595 H         1 UNK         0.0786 
    102 H102       24.3855   -6.9357   -2.0856 H         1 UNK         0.0786 
    103 H103       23.9911   -6.1644   -3.6188 H         1 UNK         0.0786 
    104 H104       27.5257   -5.3068   -4.1643 H         1 UNK         0.2977 
    105 H105       25.1683    2.5445   -4.6636 H         1 UNK         0.3127 
    106 H106       26.5421    4.7013   -5.8474 H         1 UNK         0.0770 
    107 H107       23.7255    3.6049   -6.3806 H         1 UNK         0.0814 
    108 H108       24.2964    5.2054   -6.8290 H         1 UNK         0.0814 
    109 H109       24.1596    4.7773   -5.1343 H         1 UNK         0.0814 
    110 H110       26.4389    1.5176   -7.0277 H         1 UNK         0.2983 
    111 H111       26.3908    1.8491   -9.8383 H         1 UNK         0.0947 
    112 H112       27.5952   -0.3515   -9.8288 H         1 UNK         0.0806 
    113 H113       26.2571   -0.3490   -8.6935 H         1 UNK         0.0806 
    114 H114       27.9051   -0.1865   -8.1028 H         1 UNK         0.0806 
    115 H115       28.9594    2.3803   -7.5003 H         1 UNK         0.3000 
    116 H116       30.9314    3.3137   -7.4699 H         1 UNK         0.0850 
    117 H117       31.4586    5.1489   -9.0564 H         1 UNK         0.0810 
    118 H118       29.7906    5.2436   -8.5133 H         1 UNK         0.0810 
    119 H119       30.1614    4.6363  -10.1246 H         1 UNK         0.0810 
    120 H120       30.5129    2.1925  -10.8434 H         1 UNK         0.3040 
    121 H121       33.2788    1.6941  -11.3887 H         1 UNK         0.0766 
    122 H122       32.3751    0.4177  -13.3485 H         1 UNK         0.0812 
    123 H123       31.5872    1.9781  -13.1831 H         1 UNK         0.0812 
    124 H124       30.7536    0.5106  -12.6727 H         1 UNK         0.0812 
    125 H125       30.8197   -0.2254   -9.8069 H         1 UNK         0.3205 
    126 H126       32.0609   -2.7796   -9.7896 H         1 UNK         0.0754 
    127 H127       30.1464   -1.5080   -7.7535 H         1 UNK         0.0769 
    128 H128       30.4800   -3.2250   -7.9231 H         1 UNK         0.0769 
    129 H129       29.6550   -2.3709   -9.2138 H         1 UNK         0.0769 
    130 H130       32.8703    0.1421   -8.0112 H         1 UNK         0.2981 
    131 H131       34.3755   -1.2423   -5.9323 H         1 UNK         0.0541 
    132 H132       35.1186   -0.6939   -9.2442 H         1 UNK         0.3459 
    133 H133       36.8538   -0.6951   -9.0407 H         1 UNK         0.3459 
    134 H134       34.3138    1.7447   -6.5553 H         1 UNK         0.0612 
    135 H135       34.9717    1.0032   -5.1233 H         1 UNK         0.0612 
    136 H136       33.3165    0.9279   -2.8056 H         1 UNK         0.0624 
    137 H137       33.6705   -0.5684   -3.6365 H         1 UNK         0.0624 
@<TRIPOS>BOND
     1    1    2 1    
     2    1   72 1    
     3    1   73 1    
     4    1   74 1    
     5    2    3 2    
     6    2    4 am   BACKBONE|DICT|INTERRES
     7    4    5 1    
     8    4   75 1    
     9    5    6 1    
    10    5   35 1    
    11    5   76 1    
    12    6    7 1    
    13    6   77 1    
    14    6   78 1    
    15    7    8 1    
    16    8    9 1    
    17    8   79 1    
    18    8   80 1    
    19    9   10 ar   
    20    9   14 ar   
    21   10   11 ar   
    22   10   81 1    
    23   11   12 ar   
    24   11   71 1    
    25   12   13 ar   
    26   12   82 1    
    27   13   14 ar   
    28   13   15 1    
    29   14   83 1    
    30   15   16 1    
    31   15   84 1    
    32   15   85 1    
    33   16   17 1    
    34   17   18 1    
    35   17   86 1    
    36   17   87 1    
    37   18   19 1    
    38   18   37 1    
    39   18   88 1    
    40   19   20 am   BACKBONE|DICT|INTERRES
    41   19   89 1    
    42   20   21 2    
    43   20   22 1    
    44   22   23 1    
    45   22   24 1    
    46   22   90 1    
    47   23   91 1    
    48   23   92 1    
    49   23   93 1    
    50   24   25 am   BACKBONE|DICT|INTERRES
    51   24   94 1    
    52   25   26 2    
    53   25   27 1    
    54   27   28 1    
    55   27   29 1    
    56   27   95 1    
    57   28   96 1    
    58   28   97 1    
    59   28   98 1    
    60   29   30 am   BACKBONE|DICT|INTERRES
    61   29   99 1    
    62   30   31 2    
    63   30   32 1    
    64   32   33 1    
    65   32   34 1    
    66   32  100 1    
    67   33  101 1    
    68   33  102 1    
    69   33  103 1    
    70   34   35 am   BACKBONE|DICT|INTERRES
    71   34  104 1    
    72   35   36 2    
    73   37   38 2    
    74   37   39 am   BACKBONE|DICT|INTERRES
    75   39   40 1    
    76   39  105 1    
    77   40   41 1    
    78   40   42 1    
    79   40  106 1    
    80   41  107 1    
    81   41  108 1    
    82   41  109 1    
    83   42   43 2    
    84   42   44 am   BACKBONE|DICT|INTERRES
    85   44   45 1    
    86   44  110 1    
    87   45   46 1    
    88   45   47 1    
    89   45  111 1    
    90   46  112 1    
    91   46  113 1    
    92   46  114 1    
    93   47   48 2    
    94   47   49 am   BACKBONE|DICT|INTERRES
    95   49   50 1    
    96   49  115 1    
    97   50   51 1    
    98   50   52 1    
    99   50  116 1    
   100   51  117 1    
   101   51  118 1    
   102   51  119 1    
   103   52   53 2    
   104   52   54 am   BACKBONE|DICT|INTERRES
   105   54   55 1    
   106   54  120 1    
   107   55   56 1    
   108   55   57 1    
   109   55  121 1    
   110   56  122 1    
   111   56  123 1    
   112   56  124 1    
   113   57   58 2    
   114   57   59 am   BACKBONE|DICT|INTERRES
   115   59   60 1    
   116   59  125 1    
   117   60   61 1    
   118   60   62 1    
   119   60  126 1    
   120   61  127 1    
   121   61  128 1    
   122   61  129 1    
   123   62   63 2    
   124   62   64 am   BACKBONE|DICT|INTERRES
   125   64   65 1    
   126   64  130 1    
   127   65   66 1    
   128   65   69 1    
   129   65  131 1    
   130   66   67 am   BACKBONE|DICT|INTERRES
   131   66   68 2    
   132   67  132 1    
   133   67  133 1    
   134   69   70 1    
   135   69  134 1    
   136   69  135 1    
   137   70   71 1    
   138   71  136 1    
   139   71  137 1    
@<TRIPOS>SUBSTRUCTURE
     1 UNK         1 GROUP             0       ****    0 ROOT    
