@<TRIPOS>MOLECULE
3R137
137   139    1
SMALL
USER_CHARGES


@<TRIPOS>ATOM
      1 CA         27.5940   -5.1777   -9.0126 C.3       0 UNK        -0.2020 
      2 C          27.0778   -5.3477   -7.5915 C.2       0 UNK         0.4855 
      3 O          26.2312   -6.2077   -7.3471 O.2       0 UNK        -0.5197 
      4 N          27.5966   -4.5506   -6.6506 N.am      1 UNK        -0.4892 
      5 CA         27.2355   -4.5921   -5.2311 C.3       1 UNK         0.0835 
      6 C6         28.2716   -3.8477   -4.3608 C.3       12 UNK        -0.0855 
      7 S7         29.8744   -4.7139   -4.3177 S.3       12 UNK        -0.2931 
      8 C8         30.3769   -4.4360   -2.5900 C.3       12 UNK         0.0378 
      9 C9         30.6041   -2.9586   -2.3024 C.ar      12 UNK        -0.0802 
     10 C10        31.7369   -2.3170   -2.8100 C.ar      12 UNK        -0.0944 
     11 C11        31.9635   -0.9631   -2.5507 C.ar      12 UNK        -0.0787 
     12 C12        31.0440   -0.2473   -1.7779 C.ar      12 UNK        -0.0862 
     13 C13        29.9030   -0.8773   -1.2659 C.ar      12 UNK        -0.0733 
     14 C14        29.6914   -2.2345   -1.5281 C.ar      12 UNK        -0.0832 
     15 C15        28.9076   -0.0969   -0.4138 C.3       12 UNK         0.0240 
     16 S16        27.3151    0.1837   -1.2609 S.3       12 UNK        -0.2522 
     17 C17        27.8440    1.0755   -2.7595 C.3       12 UNK        -0.0967 
     18 CA         27.6278    0.1992   -4.0277 C.3       5 UNK         0.0660 
     19 N          26.2146    0.1055   -4.4157 N.am      5 UNK        -0.4015 
     20 C          25.4800    1.0921   -4.9557 C.2       4 UNK         0.4946 
     21 O          25.9122    2.2216   -5.1955 O.2       4 UNK        -0.5353 
     22 CA         24.0133    0.7757   -5.2895 C.3       4 UNK         0.0277 
     23 CB         23.8963    0.1759   -6.6994 C.3       4 UNK        -0.1981 
     24 N          23.3861   -0.1336   -4.3312 N.am      4 UNK        -0.4209 
     25 C          23.1055    0.1584   -3.0523 C.2       3 UNK         0.4942 
     26 O          23.3062    1.2613   -2.5428 O.2       3 UNK        -0.5208 
     27 CA         22.4764   -0.9596   -2.1967 C.3       3 UNK         0.0250 
     28 CB         20.9873   -0.6708   -1.9425 C.3       3 UNK        -0.1990 
     29 N          22.6084   -2.2931   -2.7942 N.am      3 UNK        -0.4232 
     30 C          23.7550   -2.9822   -2.8646 C.2       2 UNK         0.4993 
     31 O          24.8059   -2.5997   -2.3455 O.2       2 UNK        -0.5286 
     32 CA         23.7232   -4.3123   -3.6471 C.3       2 UNK         0.0209 
     33 CB         22.6951   -4.3248   -4.8032 C.3       2 UNK        -0.1931 
     34 N          25.0520   -4.6966   -4.1412 N.am      2 UNK        -0.4546 
     35 C          25.8304   -4.0088   -4.9913 C.2       1 UNK         0.5154 
     36 O          25.5095   -2.9432   -5.5257 O.2       1 UNK        -0.5181 
     37 C          28.4812    0.6078   -5.2471 C.2       5 UNK         0.5014 
     38 O          28.4498   -0.0975   -6.2585 O.2       5 UNK        -0.5248 
     39 N          29.1847    1.7458   -5.1643 N.am      6 UNK        -0.4434 
     40 CA         30.0416    2.3000   -6.2137 C.3       6 UNK         0.0363 
     41 CB         30.7212    3.5745   -5.6930 C.3       6 UNK        -0.1936 
     42 C          29.3279    2.5790   -7.5451 C.2       6 UNK         0.5081 
     43 O          29.9770    2.5039   -8.5865 O.2       6 UNK        -0.5248 
     44 N          28.0129    2.8408   -7.5123 N.am      7 UNK        -0.4718 
     45 CA         27.1952    3.0343   -8.7141 C.3       7 UNK         0.0273 
     46 CB         25.8341    3.6314   -8.3228 C.3       7 UNK        -0.1935 
     47 C          27.0182    1.7545   -9.5552 C.2       7 UNK         0.5018 
     48 O          26.6966    1.8671  -10.7389 O.2       7 UNK        -0.5186 
     49 N          27.2389    0.5786   -8.9492 N.am      8 UNK        -0.4240 
     50 CA         27.2264   -0.7194   -9.6241 C.3       8 UNK         0.0235 
     51 CB         26.2531   -1.6613   -8.8987 C.3       8 UNK        -0.2000 
     52 C          28.6325   -1.3344   -9.6861 C.2       8 UNK         0.4941 
     53 O          29.0040   -1.8760  -10.7271 O.2       8 UNK        -0.5273 
     54 N          29.3849   -1.2624   -8.5789 N.am      9 UNK        -0.4262 
     55 CA         30.7040   -1.8822   -8.4285 C.3       9 UNK         0.0264 
     56 CB         31.0013   -2.0596   -6.9309 C.3       9 UNK        -0.1955 
     57 C          31.8519   -1.1149   -9.1067 C.2       9 UNK         0.5031 
     58 O          32.8937   -1.7222   -9.3562 O.2       9 UNK        -0.5390 
     59 N          31.6713    0.1920   -9.3587 N.am      10 UNK        -0.4204 
     60 CA         32.6560    1.1322   -9.9196 C.3       10 UNK         0.0237 
     61 CB         33.0544    0.7328  -11.3572 C.3       10 UNK        -0.1985 
     62 C          33.8805    1.3901   -9.0131 C.2       10 UNK         0.4970 
     63 O          34.8935    1.8983   -9.4973 O.2       10 UNK        -0.4914 
     64 N          33.7723    1.0522   -7.7218 N.am      11 UNK        -0.4285 
     65 CA         34.7810    1.3073   -6.6852 C.3       11 UNK         0.1007 
     66 C          34.9108    2.8083   -6.2983 C.2       11 UNK         0.5703 
     67 N          35.9940    3.1814   -5.6296 N.am      11 UNK        -0.7361 
     68 O          34.0453    3.6339   -6.5820 O.2       11 UNK        -0.4986 
     69 C69        34.5746    0.3831   -5.4536 C.3       12 UNK        -0.0947 
     70 S70        32.9001    0.4443   -4.7299 S.3       12 UNK        -0.2240 
     71 C71        33.2116   -0.2878   -3.0973 C.3       12 UNK         0.0194 
     72 H72        28.2886   -4.3427   -9.0989 H         1 UNK         0.0906 
     73 H73        28.1121   -6.0814   -9.3316 H         1 UNK         0.0906 
     74 H74        26.7647   -5.0043   -9.6976 H         1 UNK         0.0906 
     75 H75        28.2786   -3.8522   -6.9036 H         1 UNK         0.3140 
     76 H76        27.2230   -5.6409   -4.9245 H         1 UNK         0.1085 
     77 H77        27.9032   -3.7423   -3.3382 H         1 UNK         0.0836 
     78 H78        28.4336   -2.8357   -4.7340 H         1 UNK         0.0836 
     79 H79        29.6252   -4.8552   -1.9191 H         1 UNK         0.0731 
     80 H80        31.2985   -4.9870   -2.3971 H         1 UNK         0.0731 
     81 H81        32.4414   -2.8744   -3.4125 H         1 UNK         0.1312 
     82 H82        31.2202    0.8004   -1.5756 H         1 UNK         0.1406 
     83 H83        28.8110   -2.7218   -1.1309 H         1 UNK         0.1631 
     84 H84        29.3250    0.8664   -0.1163 H         1 UNK         0.0717 
     85 H85        28.7211   -0.6444    0.5111 H         1 UNK         0.0717 
     86 H86        27.2896    2.0133   -2.8245 H         1 UNK         0.0934 
     87 H87        28.8893    1.3543   -2.6276 H         1 UNK         0.0934 
     88 H88        27.9498   -0.8141   -3.7893 H         1 UNK         0.0739 
     89 H89        25.7873   -0.8044   -4.3020 H         1 UNK         0.3093 
     90 H90        23.4632    1.7190   -5.2709 H         1 UNK         0.0818 
     91 H91        22.8542    0.0804   -7.0045 H         1 UNK         0.0819 
     92 H92        24.3938    0.8003   -7.4415 H         1 UNK         0.0819 
     93 H93        24.3512   -0.8134   -6.7501 H         1 UNK         0.0819 
     94 H94        23.1885   -1.0674   -4.6585 H         1 UNK         0.3041 
     95 H95        22.9941   -0.9607   -1.2348 H         1 UNK         0.0784 
     96 H96        20.8541    0.3009   -1.4646 H         1 UNK         0.0793 
     97 H97        20.4132   -0.6586   -2.8698 H         1 UNK         0.0793 
     98 H98        20.5450   -1.4167   -1.2817 H         1 UNK         0.0793 
     99 H99        21.7814   -2.6804   -3.2259 H         1 UNK         0.3024 
    100 H100       23.4291   -5.0783   -2.9275 H         1 UNK         0.1171 
    101 H101       22.7595   -5.2519   -5.3732 H         1 UNK         0.0786 
    102 H102       22.8525   -3.5009   -5.5003 H         1 UNK         0.0786 
    103 H103       21.6716   -4.2570   -4.4335 H         1 UNK         0.0786 
    104 H104       25.4315   -5.5373   -3.7283 H         1 UNK         0.2977 
    105 H105       29.1146    2.2900   -4.3177 H         1 UNK         0.3127 
    106 H106       30.8151    1.5612   -6.4253 H         1 UNK         0.0770 
    107 H107       29.9932    4.3300   -5.3958 H         1 UNK         0.0814 
    108 H108       31.3553    4.0192   -6.4614 H         1 UNK         0.0814 
    109 H109       31.3608    3.3617   -4.8361 H         1 UNK         0.0814 
    110 H110       27.5282    2.8396   -6.6213 H         1 UNK         0.2983 
    111 H111       27.7072    3.7601   -9.3501 H         1 UNK         0.0947 
    112 H112       25.2241    3.8248   -9.2063 H         1 UNK         0.0806 
    113 H113       25.9533    4.5798   -7.7989 H         1 UNK         0.0806 
    114 H114       25.2669    2.9629   -7.6771 H         1 UNK         0.0806 
    115 H115       27.5185    0.5824   -7.9745 H         1 UNK         0.3000 
    116 H116       26.8771   -0.6120  -10.6533 H         1 UNK         0.0850 
    117 H117       26.2339   -2.6427   -9.3710 H         1 UNK         0.0810 
    118 H118       25.2356   -1.2741   -8.9364 H         1 UNK         0.0810 
    119 H119       26.5229   -1.8020   -7.8510 H         1 UNK         0.0810 
    120 H120       29.0010   -0.8207   -7.7427 H         1 UNK         0.3040 
    121 H121       30.6694   -2.8747   -8.8830 H         1 UNK         0.0766 
    122 H122       31.9708   -2.5336   -6.7710 H         1 UNK         0.0812 
    123 H123       30.2532   -2.6887   -6.4526 H         1 UNK         0.0812 
    124 H124       31.0138   -1.1054   -6.4052 H         1 UNK         0.0812 
    125 H125       30.7859    0.6174   -9.1056 H         1 UNK         0.3205 
    126 H126       32.1441    2.0923   -9.9891 H         1 UNK         0.0754 
    127 H127       33.6416    1.5187  -11.8337 H         1 UNK         0.0769 
    128 H128       32.1755    0.5658  -11.9798 H         1 UNK         0.0769 
    129 H129       33.6568   -0.1757  -11.3753 H         1 UNK         0.0769 
    130 H130       32.9039    0.6606   -7.3941 H         1 UNK         0.2981 
    131 H131       35.7433    1.0341   -7.1227 H         1 UNK         0.0541 
    132 H132       36.7140    2.5189   -5.3874 H         1 UNK         0.3459 
    133 H133       36.0943    4.1487   -5.3652 H         1 UNK         0.3459 
    134 H134       35.3088    0.6052   -4.6773 H         1 UNK         0.0612 
    135 H135       34.7626   -0.6507   -5.7472 H         1 UNK         0.0612 
    136 H136       34.0194   -1.0176   -3.1699 H         1 UNK         0.0624 
    137 H137       33.5579    0.4890   -2.4145 H         1 UNK         0.0624 
@<TRIPOS>BOND
     1    1    2 1    
     2    1   72 1    
     3    1   73 1    
     4    1   74 1    
     5    2    3 2    
     6    2    4 am   BACKBONE|DICT|INTERRES
     7    4    5 1    
     8    4   75 1    
     9    5    6 1    
    10    5   35 1    
    11    5   76 1    
    12    6    7 1    
    13    6   77 1    
    14    6   78 1    
    15    7    8 1    
    16    8    9 1    
    17    8   79 1    
    18    8   80 1    
    19    9   10 ar   
    20    9   14 ar   
    21   10   11 ar   
    22   10   81 1    
    23   11   12 ar   
    24   11   71 1    
    25   12   13 ar   
    26   12   82 1    
    27   13   14 ar   
    28   13   15 1    
    29   14   83 1    
    30   15   16 1    
    31   15   84 1    
    32   15   85 1    
    33   16   17 1    
    34   17   18 1    
    35   17   86 1    
    36   17   87 1    
    37   18   19 1    
    38   18   37 1    
    39   18   88 1    
    40   19   20 am   BACKBONE|DICT|INTERRES
    41   19   89 1    
    42   20   21 2    
    43   20   22 1    
    44   22   23 1    
    45   22   24 1    
    46   22   90 1    
    47   23   91 1    
    48   23   92 1    
    49   23   93 1    
    50   24   25 am   BACKBONE|DICT|INTERRES
    51   24   94 1    
    52   25   26 2    
    53   25   27 1    
    54   27   28 1    
    55   27   29 1    
    56   27   95 1    
    57   28   96 1    
    58   28   97 1    
    59   28   98 1    
    60   29   30 am   BACKBONE|DICT|INTERRES
    61   29   99 1    
    62   30   31 2    
    63   30   32 1    
    64   32   33 1    
    65   32   34 1    
    66   32  100 1    
    67   33  101 1    
    68   33  102 1    
    69   33  103 1    
    70   34   35 am   BACKBONE|DICT|INTERRES
    71   34  104 1    
    72   35   36 2    
    73   37   38 2    
    74   37   39 am   BACKBONE|DICT|INTERRES
    75   39   40 1    
    76   39  105 1    
    77   40   41 1    
    78   40   42 1    
    79   40  106 1    
    80   41  107 1    
    81   41  108 1    
    82   41  109 1    
    83   42   43 2    
    84   42   44 am   BACKBONE|DICT|INTERRES
    85   44   45 1    
    86   44  110 1    
    87   45   46 1    
    88   45   47 1    
    89   45  111 1    
    90   46  112 1    
    91   46  113 1    
    92   46  114 1    
    93   47   48 2    
    94   47   49 am   BACKBONE|DICT|INTERRES
    95   49   50 1    
    96   49  115 1    
    97   50   51 1    
    98   50   52 1    
    99   50  116 1    
   100   51  117 1    
   101   51  118 1    
   102   51  119 1    
   103   52   53 2    
   104   52   54 am   BACKBONE|DICT|INTERRES
   105   54   55 1    
   106   54  120 1    
   107   55   56 1    
   108   55   57 1    
   109   55  121 1    
   110   56  122 1    
   111   56  123 1    
   112   56  124 1    
   113   57   58 2    
   114   57   59 am   BACKBONE|DICT|INTERRES
   115   59   60 1    
   116   59  125 1    
   117   60   61 1    
   118   60   62 1    
   119   60  126 1    
   120   61  127 1    
   121   61  128 1    
   122   61  129 1    
   123   62   63 2    
   124   62   64 am   BACKBONE|DICT|INTERRES
   125   64   65 1    
   126   64  130 1    
   127   65   66 1    
   128   65   69 1    
   129   65  131 1    
   130   66   67 am   BACKBONE|DICT|INTERRES
   131   66   68 2    
   132   67  132 1    
   133   67  133 1    
   134   69   70 1    
   135   69  134 1    
   136   69  135 1    
   137   70   71 1    
   138   71  136 1    
   139   71  137 1    
@<TRIPOS>SUBSTRUCTURE
     1 UNK         1 GROUP             0       ****    0 ROOT    
