@<TRIPOS>MOLECULE
3R137
137   139    1
SMALL
USER_CHARGES


@<TRIPOS>ATOM
      1 CA         27.2815   -1.8172    4.1085 C.3       0 UNK        -0.2020 
      2 C          27.1332   -0.8770    2.9215 C.2       0 UNK         0.4855 
      3 O          26.7068    0.2656    3.0943 O.2       0 UNK        -0.5197 
      4 N          27.4906   -1.3444    1.7197 N.am      1 UNK        -0.4892 
      5 CA         27.3379   -0.6154    0.4572 C.3       1 UNK         0.0835 
      6 C6         28.2947   -1.1629   -0.6355 C.3       12 UNK        -0.0855 
      7 S7         28.0799   -2.9448   -0.9856 S.3       12 UNK        -0.2931 
      8 C8         29.7827   -3.4737   -1.3509 C.3       12 UNK         0.0378 
      9 C9         30.1280   -3.2885   -2.8213 C.ar      12 UNK        -0.0802 
     10 C10        30.9481   -2.2357   -3.2406 C.ar      12 UNK        -0.0944 
     11 C11        31.2966   -2.1060   -4.5899 C.ar      12 UNK        -0.0787 
     12 C12        30.8162   -3.0319   -5.5211 C.ar      12 UNK        -0.0862 
     13 C13        30.0021   -4.0902   -5.1108 C.ar      12 UNK        -0.0733 
     14 C14        29.6553   -4.2081   -3.7622 C.ar      12 UNK        -0.0832 
     15 C15        29.5318   -5.1378   -6.1064 C.3       12 UNK         0.0240 
     16 S16        27.8909   -4.7403   -6.7776 S.3       12 UNK        -0.2522 
     17 C17        28.2980   -3.8419   -8.3197 C.3       12 UNK        -0.0967 
     18 CA         27.5794   -2.4771   -8.4721 C.3       5 UNK         0.0660 
     19 N          26.1665   -2.5585   -8.0944 N.am      5 UNK        -0.4015 
     20 C          25.2281   -1.6506   -8.3850 C.2       4 UNK         0.4946 
     21 O          25.4330   -0.6498   -9.0692 O.2       4 UNK        -0.5353 
     22 CA         23.8430   -1.8696   -7.7493 C.3       4 UNK         0.0277 
     23 CB         23.0015   -2.8321   -8.6021 C.3       4 UNK        -0.1981 
     24 N          23.9076   -2.3577   -6.3639 N.am      4 UNK        -0.4209 
     25 C          24.5079   -1.6984   -5.3636 C.2       3 UNK         0.4942 
     26 O          25.0849   -0.6199   -5.5156 O.2       3 UNK        -0.5208 
     27 CA         24.5337   -2.3832   -3.9875 C.3       3 UNK         0.0250 
     28 CB         25.6842   -3.4024   -3.9229 C.3       3 UNK        -0.1990 
     29 N          24.7197   -1.3996   -2.9193 N.am      3 UNK        -0.4232 
     30 C          23.7868   -0.5310   -2.5051 C.2       2 UNK         0.4993 
     31 O          22.6158   -0.5635   -2.8891 O.2       2 UNK        -0.5286 
     32 CA         24.2323    0.5824   -1.5312 C.3       2 UNK         0.0209 
     33 CB         23.1489    0.9145   -0.4816 C.3       2 UNK        -0.1931 
     34 N          25.5411    0.3600   -0.8926 N.am      2 UNK        -0.4546 
     35 C          25.8661   -0.6034   -0.0162 C.2       1 UNK         0.5154 
     36 O          25.0781   -1.4666    0.3807 O.2       1 UNK        -0.5181 
     37 C          28.3323   -1.3348   -7.7575 C.2       5 UNK         0.5014 
     38 O          29.2482   -0.7596   -8.3487 O.2       5 UNK        -0.5248 
     39 N          27.9281   -0.9967   -6.5252 N.am      6 UNK        -0.4434 
     40 CA         28.4645    0.1403   -5.7774 C.3       6 UNK         0.0363 
     41 CB         28.1531   -0.0152   -4.2822 C.3       6 UNK        -0.1936 
     42 C          27.9230    1.4678   -6.3258 C.2       6 UNK         0.5081 
     43 O          28.6982    2.4058   -6.5026 O.2       6 UNK        -0.5248 
     44 N          26.6202    1.5071   -6.6412 N.am      7 UNK        -0.4718 
     45 CA         25.9454    2.6346   -7.2928 C.3       7 UNK         0.0273 
     46 CB         24.4304    2.3788   -7.3218 C.3       7 UNK        -0.1935 
     47 C          26.4840    2.9179   -8.7073 C.2       7 UNK         0.5018 
     48 O          26.6471    4.0828   -9.0711 O.2       7 UNK        -0.5186 
     49 N          26.7968    1.8513   -9.4572 N.am      8 UNK        -0.4240 
     50 CA         27.4783    1.9005  -10.7551 C.3       8 UNK         0.0235 
     51 CB         27.2838    0.5547  -11.4732 C.3       8 UNK        -0.2000 
     52 C          28.9801    2.2399  -10.6607 C.2       8 UNK         0.4941 
     53 O          29.5953    2.4827  -11.6997 O.2       8 UNK        -0.5273 
     54 N          29.5406    2.2436   -9.4411 N.am      9 UNK        -0.4262 
     55 CA         30.9379    2.5166   -9.0949 C.3       9 UNK         0.0264 
     56 CB         31.3071    3.9833   -9.4041 C.3       9 UNK        -0.1955 
     57 C          31.9217    1.5019   -9.7052 C.2       9 UNK         0.5031 
     58 O          32.9864    1.8931  -10.1893 O.2       9 UNK        -0.5390 
     59 N          31.5783    0.2058   -9.6329 N.am      10 UNK        -0.4204 
     60 CA         32.4084   -0.9097  -10.1120 C.3       10 UNK         0.0237 
     61 CB         31.6181   -2.2224   -9.9910 C.3       10 UNK        -0.1985 
     62 C          33.7667   -1.0354   -9.3934 C.2       10 UNK         0.4970 
     63 O          34.7023   -1.5961   -9.9649 O.2       10 UNK        -0.4914 
     64 N          33.8513   -0.4946   -8.1719 N.am      11 UNK        -0.4285 
     65 CA         35.0858   -0.3386   -7.3908 C.3       11 UNK         0.1007 
     66 C          36.0398    0.7752   -7.9186 C.2       11 UNK         0.5703 
     67 N          35.6392    1.6224   -8.8611 N.am      11 UNK        -0.7361 
     68 O          37.1786    0.8662   -7.4658 O.2       11 UNK        -0.4986 
     69 C69        34.7751   -0.1374   -5.8833 C.3       12 UNK        -0.0947 
     70 S70        33.9334   -1.5772   -5.1476 S.3       12 UNK        -0.2240 
     71 C71        32.2167   -0.9863   -5.0460 C.3       12 UNK         0.0194 
     72 H72        27.9520   -1.3834    4.8499 H         1 UNK         0.0906 
     73 H73        26.3127   -1.9816    4.5795 H         1 UNK         0.0906 
     74 H74        27.6837   -2.7862    3.8136 H         1 UNK         0.0906 
     75 H75        27.7910   -2.3043    1.6211 H         1 UNK         0.3140 
     76 H76        27.6173    0.4243    0.6448 H         1 UNK         0.1085 
     77 H77        28.1797   -0.6063   -1.5645 H         1 UNK         0.0836 
     78 H78        29.3235   -0.9834   -0.3204 H         1 UNK         0.0836 
     79 H79        29.8779   -4.5299   -1.0945 H         1 UNK         0.0731 
     80 H80        30.4928   -2.9483   -0.7107 H         1 UNK         0.0731 
     81 H81        31.3277   -1.5277   -2.5167 H         1 UNK         0.1312 
     82 H82        31.0960   -2.9397   -6.5610 H         1 UNK         0.1406 
     83 H83        29.0266   -5.0271   -3.4394 H         1 UNK         0.1631 
     84 H84        29.4733   -6.1080   -5.6106 H         1 UNK         0.0717 
     85 H85        30.2571   -5.2620   -6.9117 H         1 UNK         0.0717 
     86 H86        29.3779   -3.7287   -8.4253 H         1 UNK         0.0934 
     87 H87        28.0011   -4.4891   -9.1466 H         1 UNK         0.0934 
     88 H88        27.6047   -2.2248   -9.5341 H         1 UNK         0.0739 
     89 H89        25.9158   -3.3533   -7.5239 H         1 UNK         0.3093 
     90 H90        23.3381   -0.9015   -7.7312 H         1 UNK         0.0818 
     91 H91        21.9840   -2.9152   -8.2196 H         1 UNK         0.0819 
     92 H92        22.9294   -2.4781   -9.6317 H         1 UNK         0.0819 
     93 H93        23.4328   -3.8335   -8.6314 H         1 UNK         0.0819 
     94 H94        23.4597   -3.2423   -6.1695 H         1 UNK         0.3041 
     95 H95        23.5849   -2.9002   -3.8293 H         1 UNK         0.0784 
     96 H96        25.5652   -4.1817   -4.6765 H         1 UNK         0.0793 
     97 H97        26.6558   -2.9341   -4.0888 H         1 UNK         0.0793 
     98 H98        25.7182   -3.8990   -2.9529 H         1 UNK         0.0793 
     99 H99        25.6544   -1.3016   -2.5548 H         1 UNK         0.3024 
    100 H100       24.3553    1.4690   -2.1559 H         1 UNK         0.1171 
    101 H101       22.2265    1.2449   -0.9610 H         1 UNK         0.0786 
    102 H102       23.4708    1.7173    0.1817 H         1 UNK         0.0786 
    103 H103       22.8998    0.0496    0.1337 H         1 UNK         0.0786 
    104 H104       26.2604    1.0184   -1.1605 H         1 UNK         0.2977 
    105 H105       27.1284   -1.4657   -6.1253 H         1 UNK         0.3127 
    106 H106       29.5498    0.1445   -5.8939 H         1 UNK         0.0770 
    107 H107       27.0930    0.1110   -4.0653 H         1 UNK         0.0814 
    108 H108       28.6941    0.7308   -3.6993 H         1 UNK         0.0814 
    109 H109       28.4553   -0.9971   -3.9193 H         1 UNK         0.0814 
    110 H110       26.0446    0.7005   -6.4056 H         1 UNK         0.2983 
    111 H111       26.1307    3.5240   -6.6866 H         1 UNK         0.0947 
    112 H112       23.8998    3.2274   -7.7555 H         1 UNK         0.0806 
    113 H113       24.0347    2.2259   -6.3174 H         1 UNK         0.0806 
    114 H114       24.1804    1.4995   -7.9156 H         1 UNK         0.0806 
    115 H115       26.5270    0.9297   -9.1210 H         1 UNK         0.3000 
    116 H116       27.0075    2.6808  -11.3568 H         1 UNK         0.0850 
    117 H117       27.7234    0.5747  -12.4713 H         1 UNK         0.0810 
    118 H118       26.2268    0.3149  -11.5904 H         1 UNK         0.0810 
    119 H119       27.7554   -0.2616  -10.9259 H         1 UNK         0.0810 
    120 H120       28.9436    2.0347   -8.6502 H         1 UNK         0.3040 
    121 H121       31.0095    2.3863   -8.0142 H         1 UNK         0.0766 
    122 H122       32.3010    4.2242   -9.0250 H         1 UNK         0.0812 
    123 H123       30.6063    4.6746   -8.9359 H         1 UNK         0.0812 
    124 H124       31.3119    4.1836  -10.4759 H         1 UNK         0.0812 
    125 H125       30.6859   -0.0456   -9.2054 H         1 UNK         0.3205 
    126 H126       32.6161   -0.7306  -11.1688 H         1 UNK         0.0754 
    127 H127       32.1816   -3.0587  -10.4070 H         1 UNK         0.0769 
    128 H128       30.6714   -2.1688  -10.5292 H         1 UNK         0.0769 
    129 H129       31.4007   -2.4612   -8.9500 H         1 UNK         0.0769 
    130 H130       33.0296   -0.0532   -7.7925 H         1 UNK         0.2981 
    131 H131       35.6479   -1.2696   -7.4866 H         1 UNK         0.0541 
    132 H132       34.7091    1.5728   -9.2639 H         1 UNK         0.3459 
    133 H133       36.2813    2.3279   -9.1845 H         1 UNK         0.3459 
    134 H134       34.1788    0.7632   -5.7261 H         1 UNK         0.0612 
    135 H135       35.6979    0.0090   -5.3188 H         1 UNK         0.0612 
    136 H136       32.1610   -0.1398   -4.3597 H         1 UNK         0.0624 
    137 H137       31.8949   -0.6211   -6.0219 H         1 UNK         0.0624 
@<TRIPOS>BOND
     1    1    2 1    
     2    1   72 1    
     3    1   73 1    
     4    1   74 1    
     5    2    3 2    
     6    2    4 am   BACKBONE|DICT|INTERRES
     7    4    5 1    
     8    4   75 1    
     9    5    6 1    
    10    5   35 1    
    11    5   76 1    
    12    6    7 1    
    13    6   77 1    
    14    6   78 1    
    15    7    8 1    
    16    8    9 1    
    17    8   79 1    
    18    8   80 1    
    19    9   10 ar   
    20    9   14 ar   
    21   10   11 ar   
    22   10   81 1    
    23   11   12 ar   
    24   11   71 1    
    25   12   13 ar   
    26   12   82 1    
    27   13   14 ar   
    28   13   15 1    
    29   14   83 1    
    30   15   16 1    
    31   15   84 1    
    32   15   85 1    
    33   16   17 1    
    34   17   18 1    
    35   17   86 1    
    36   17   87 1    
    37   18   19 1    
    38   18   37 1    
    39   18   88 1    
    40   19   20 am   BACKBONE|DICT|INTERRES
    41   19   89 1    
    42   20   21 2    
    43   20   22 1    
    44   22   23 1    
    45   22   24 1    
    46   22   90 1    
    47   23   91 1    
    48   23   92 1    
    49   23   93 1    
    50   24   25 am   BACKBONE|DICT|INTERRES
    51   24   94 1    
    52   25   26 2    
    53   25   27 1    
    54   27   28 1    
    55   27   29 1    
    56   27   95 1    
    57   28   96 1    
    58   28   97 1    
    59   28   98 1    
    60   29   30 am   BACKBONE|DICT|INTERRES
    61   29   99 1    
    62   30   31 2    
    63   30   32 1    
    64   32   33 1    
    65   32   34 1    
    66   32  100 1    
    67   33  101 1    
    68   33  102 1    
    69   33  103 1    
    70   34   35 am   BACKBONE|DICT|INTERRES
    71   34  104 1    
    72   35   36 2    
    73   37   38 2    
    74   37   39 am   BACKBONE|DICT|INTERRES
    75   39   40 1    
    76   39  105 1    
    77   40   41 1    
    78   40   42 1    
    79   40  106 1    
    80   41  107 1    
    81   41  108 1    
    82   41  109 1    
    83   42   43 2    
    84   42   44 am   BACKBONE|DICT|INTERRES
    85   44   45 1    
    86   44  110 1    
    87   45   46 1    
    88   45   47 1    
    89   45  111 1    
    90   46  112 1    
    91   46  113 1    
    92   46  114 1    
    93   47   48 2    
    94   47   49 am   BACKBONE|DICT|INTERRES
    95   49   50 1    
    96   49  115 1    
    97   50   51 1    
    98   50   52 1    
    99   50  116 1    
   100   51  117 1    
   101   51  118 1    
   102   51  119 1    
   103   52   53 2    
   104   52   54 am   BACKBONE|DICT|INTERRES
   105   54   55 1    
   106   54  120 1    
   107   55   56 1    
   108   55   57 1    
   109   55  121 1    
   110   56  122 1    
   111   56  123 1    
   112   56  124 1    
   113   57   58 2    
   114   57   59 am   BACKBONE|DICT|INTERRES
   115   59   60 1    
   116   59  125 1    
   117   60   61 1    
   118   60   62 1    
   119   60  126 1    
   120   61  127 1    
   121   61  128 1    
   122   61  129 1    
   123   62   63 2    
   124   62   64 am   BACKBONE|DICT|INTERRES
   125   64   65 1    
   126   64  130 1    
   127   65   66 1    
   128   65   69 1    
   129   65  131 1    
   130   66   67 am   BACKBONE|DICT|INTERRES
   131   66   68 2    
   132   67  132 1    
   133   67  133 1    
   134   69   70 1    
   135   69  134 1    
   136   69  135 1    
   137   70   71 1    
   138   71  136 1    
   139   71  137 1    
@<TRIPOS>SUBSTRUCTURE
     1 UNK         1 GROUP             0       ****    0 ROOT    
