@<TRIPOS>MOLECULE
3R137
137   139    1
SMALL
USER_CHARGES


@<TRIPOS>ATOM
      1 CA         25.7730   -0.9785   -0.8815 C.3       0 UNK        -0.2020 
      2 C          26.3354   -1.9843   -1.8735 C.2       0 UNK         0.4855 
      3 O          26.3690   -1.7129   -3.0731 O.2       0 UNK        -0.5197 
      4 N          26.7836   -3.1452   -1.3838 N.am      1 UNK        -0.4892 
      5 CA         27.4173   -4.2036   -2.1743 C.3       1 UNK         0.0835 
      6 C6         28.0500   -5.3049   -1.2828 C.3       12 UNK        -0.0855 
      7 S7         29.0986   -4.6533    0.0629 S.3       12 UNK        -0.2931 
      8 C8         30.7347   -4.5707   -0.7303 C.3       12 UNK         0.0378 
      9 C9         30.8695   -3.3808   -1.6725 C.ar      12 UNK        -0.0802 
     10 C10        31.1798   -3.5800   -3.0210 C.ar      12 UNK        -0.0944 
     11 C11        31.3843   -2.4875   -3.8691 C.ar      12 UNK        -0.0787 
     12 C12        31.2559   -1.1875   -3.3685 C.ar      12 UNK        -0.0862 
     13 C13        30.9477   -0.9753   -2.0220 C.ar      12 UNK        -0.0733 
     14 C14        30.7498   -2.0759   -1.1817 C.ar      12 UNK        -0.0832 
     15 C15        30.8968    0.4357   -1.4532 C.3       12 UNK         0.0240 
     16 S16        29.2794    1.2278   -1.7107 S.3       12 UNK        -0.2522 
     17 C17        29.5189    2.1444   -3.2763 C.3       12 UNK        -0.0967 
     18 CA         28.5806    1.6605   -4.4082 C.3       5 UNK         0.0660 
     19 N          27.1753    1.6100   -3.9799 N.am      5 UNK        -0.4015 
     20 C          26.1851    1.0789   -4.7042 C.2       4 UNK         0.4946 
     21 O          26.3295    0.6576   -5.8548 O.2       4 UNK        -0.5353 
     22 CA         24.7955    1.0303   -4.0667 C.3       4 UNK         0.0277 
     23 CB         23.9845    2.2966   -4.3902 C.3       4 UNK        -0.1981 
     24 N          24.1421   -0.1448   -4.6224 N.am      4 UNK        -0.4209 
     25 C          23.2151   -0.9001   -4.0283 C.2       3 UNK         0.4942 
     26 O          22.6686   -0.6243   -2.9602 O.2       3 UNK        -0.5208 
     27 CA         22.8829   -2.2116   -4.7438 C.3       3 UNK         0.0250 
     28 CB         22.1799   -1.9260   -6.0903 C.3       3 UNK        -0.1990 
     29 N          24.1176   -2.9844   -4.9168 N.am      3 UNK        -0.4232 
     30 C          24.2078   -4.2222   -5.4228 C.2       2 UNK         0.4993 
     31 O          23.2414   -4.8824   -5.8060 O.2       2 UNK        -0.5286 
     32 CA         25.6146   -4.8398   -5.5259 C.3       2 UNK         0.0209 
     33 CB         26.2436   -4.5084   -6.8893 C.3       2 UNK        -0.1931 
     34 N          26.5190   -4.4116   -4.4550 N.am      2 UNK        -0.4546 
     35 C          26.4140   -4.8086   -3.1793 C.2       1 UNK         0.5154 
     36 O          25.5561   -5.5997   -2.7805 O.2       1 UNK        -0.5181 
     37 C          28.7809    2.5063   -5.6867 C.2       5 UNK         0.5014 
     38 O          29.6269    2.1683   -6.5179 O.2       5 UNK        -0.5248 
     39 N          27.9734    3.5683   -5.8330 N.am      6 UNK        -0.4434 
     40 CA         27.9122    4.4169   -7.0238 C.3       6 UNK         0.0363 
     41 CB         27.1987    5.7340   -6.6802 C.3       6 UNK        -0.1936 
     42 C          27.2216    3.7246   -8.2110 C.2       6 UNK         0.5081 
     43 O          27.6594    3.9083   -9.3454 O.2       6 UNK        -0.5248 
     44 N          26.1859    2.9148   -7.9409 N.am      7 UNK        -0.4718 
     45 CA         25.4923    2.0976   -8.9461 C.3       7 UNK         0.0273 
     46 CB         24.1570    1.5853   -8.3816 C.3       7 UNK        -0.1935 
     47 C          26.3668    0.9323   -9.4387 C.2       7 UNK         0.5018 
     48 O          26.3380    0.6060  -10.6252 O.2       7 UNK        -0.5186 
     49 N          27.1762    0.3764   -8.5268 N.am      8 UNK        -0.4240 
     50 CA         28.2527   -0.5759   -8.8043 C.3       8 UNK         0.0235 
     51 CB         28.6836   -1.2353   -7.4818 C.3       8 UNK        -0.2000 
     52 C          29.4727    0.0615   -9.4998 C.2       8 UNK         0.4941 
     53 O          30.3849   -0.6750   -9.8735 O.2       8 UNK        -0.5273 
     54 N          29.4979    1.3982   -9.6295 N.am      9 UNK        -0.4262 
     55 CA         30.5491    2.2242  -10.2349 C.3       9 UNK         0.0264 
     56 CB         30.5924    2.0018  -11.7616 C.3       9 UNK        -0.1955 
     57 C          31.9229    2.0418   -9.5618 C.2       9 UNK         0.5031 
     58 O          32.9397    1.9877  -10.2562 O.2       9 UNK        -0.5390 
     59 N          31.9192    1.9282   -8.2233 N.am      10 UNK        -0.4204 
     60 CA         33.0678    1.6034   -7.3682 C.3       10 UNK         0.0237 
     61 CB         34.1015    2.7503   -7.3620 C.3       10 UNK        -0.1985 
     62 C          33.6796    0.2272   -7.7060 C.2       10 UNK         0.4970 
     63 O          34.9022    0.0948   -7.7872 O.2       10 UNK        -0.4914 
     64 N          32.7972   -0.7651   -7.8826 N.am      11 UNK        -0.4285 
     65 CA         33.0971   -2.1685   -8.2096 C.3       11 UNK         0.1007 
     66 C          33.5712   -2.3492   -9.6815 C.2       11 UNK         0.5703 
     67 N          32.9020   -1.7254  -10.6415 N.am      11 UNK        -0.7361 
     68 O          34.5345   -3.0584   -9.9660 O.2       11 UNK        -0.4986 
     69 C69        34.0216   -2.8821   -7.1756 C.3       12 UNK        -0.0947 
     70 S70        33.6346   -2.6415   -5.4057 S.3       12 UNK        -0.2240 
     71 C71        31.8182   -2.7078   -5.3079 C.3       12 UNK         0.0194 
     72 H72        25.8616   -1.3276    0.1469 H         1 UNK         0.0906 
     73 H73        26.3098   -0.0340   -0.9643 H         1 UNK         0.0906 
     74 H74        24.7193   -0.7950   -1.0881 H         1 UNK         0.0906 
     75 H75        26.7345   -3.3248   -0.3911 H         1 UNK         0.3140 
     76 H76        28.2252   -3.7366   -2.7414 H         1 UNK         0.1085 
     77 H77        28.6330   -5.9985   -1.8915 H         1 UNK         0.0836 
     78 H78        27.2722   -5.9067   -0.8082 H         1 UNK         0.0836 
     79 H79        30.9388   -5.5107   -1.2455 H         1 UNK         0.0731 
     80 H80        31.4932   -4.4823    0.0487 H         1 UNK         0.0731 
     81 H81        31.3017   -4.5841   -3.4040 H         1 UNK         0.1312 
     82 H82        31.4355   -0.3422   -4.0183 H         1 UNK         0.1406 
     83 H83        30.5249   -1.9202   -0.1350 H         1 UNK         0.1631 
     84 H84        31.6958    1.0453   -1.8774 H         1 UNK         0.0717 
     85 H85        31.0914    0.4061   -0.3801 H         1 UNK         0.0717 
     86 H86        29.3496    3.2022   -3.0647 H         1 UNK         0.0934 
     87 H87        30.5598    2.0684   -3.5956 H         1 UNK         0.0934 
     88 H88        28.8668    0.6367   -4.6587 H         1 UNK         0.0739 
     89 H89        26.9907    1.9179   -3.0362 H         1 UNK         0.3093 
     90 H90        24.8990    0.9170   -2.9862 H         1 UNK         0.0818 
     91 H91        24.4692    3.1872   -3.9886 H         1 UNK         0.0819 
     92 H92        23.8685    2.4408   -5.4645 H         1 UNK         0.0819 
     93 H93        22.9872    2.2471   -3.9529 H         1 UNK         0.0819 
     94 H94        24.5753   -0.4666   -5.4797 H         1 UNK         0.3041 
     95 H95        22.2072   -2.7832   -4.1044 H         1 UNK         0.0784 
     96 H96        21.3447   -1.2371   -5.9566 H         1 UNK         0.0793 
     97 H97        22.8581   -1.4798   -6.8185 H         1 UNK         0.0793 
     98 H98        21.7698   -2.8337   -6.5321 H         1 UNK         0.0793 
     99 H99        24.9590   -2.5538   -4.5443 H         1 UNK         0.3024 
    100 H100       25.5000   -5.9245   -5.4584 H         1 UNK         0.1171 
    101 H101       26.3386   -3.4331   -7.0396 H         1 UNK         0.0786 
    102 H102       27.2329   -4.9544   -6.9933 H         1 UNK         0.0786 
    103 H103       25.6283   -4.8942   -7.7034 H         1 UNK         0.0786 
    104 H104       27.2128   -3.7160   -4.6913 H         1 UNK         0.2977 
    105 H105       27.3220    3.7777   -5.0909 H         1 UNK         0.3127 
    106 H106       28.9348    4.6531   -7.3273 H         1 UNK         0.0770 
    107 H107       26.1712    5.5674   -6.3544 H         1 UNK         0.0814 
    108 H108       27.1617    6.3939   -7.5482 H         1 UNK         0.0814 
    109 H109       27.7198    6.2729   -5.8887 H         1 UNK         0.0814 
    110 H110       25.9241    2.7655   -6.9777 H         1 UNK         0.2983 
    111 H111       25.2742    2.7326   -9.8080 H         1 UNK         0.0947 
    112 H112       23.6090    1.0209   -9.1373 H         1 UNK         0.0806 
    113 H113       23.5163    2.4092   -8.0674 H         1 UNK         0.0806 
    114 H114       24.2997    0.9242   -7.5273 H         1 UNK         0.0806 
    115 H115       27.0471    0.6446   -7.5526 H         1 UNK         0.3000 
    116 H116       27.8608   -1.3491   -9.4681 H         1 UNK         0.0850 
    117 H117       29.1891   -0.5275   -6.8250 H         1 UNK         0.0810 
    118 H118       29.3708   -2.0625   -7.6635 H         1 UNK         0.0810 
    119 H119       27.8297   -1.6348   -6.9361 H         1 UNK         0.0810 
    120 H120       28.7050    1.9169   -9.2746 H         1 UNK         0.3040 
    121 H121       30.2630    3.2623  -10.0602 H         1 UNK         0.0766 
    122 H122       30.9206    0.9927  -12.0135 H         1 UNK         0.0812 
    123 H123       29.6121    2.1582  -12.2119 H         1 UNK         0.0812 
    124 H124       31.2826    2.6977  -12.2399 H         1 UNK         0.0812 
    125 H125       31.0258    2.0052   -7.7364 H         1 UNK         0.3205 
    126 H126       32.6731    1.5162   -6.3546 H         1 UNK         0.0754 
    127 H127       34.8881    2.5616   -6.6304 H         1 UNK         0.0769 
    128 H128       33.6368    3.7006   -7.0994 H         1 UNK         0.0769 
    129 H129       34.5839    2.8692   -8.3326 H         1 UNK         0.0769 
    130 H130       31.8172   -0.5262   -7.8926 H         1 UNK         0.2981 
    131 H131       32.1368   -2.6834   -8.1727 H         1 UNK         0.0541 
    132 H132       33.1941   -1.8270  -11.5995 H         1 UNK         0.3459 
    133 H133       32.0574   -1.2034  -10.4161 H         1 UNK         0.3459 
    134 H134       35.0555   -2.5628   -7.3160 H         1 UNK         0.0612 
    135 H135       34.0181   -3.9568   -7.3644 H         1 UNK         0.0612 
    136 H136       31.3696   -1.9419   -5.9392 H         1 UNK         0.0624 
    137 H137       31.4649   -3.6717   -5.6771 H         1 UNK         0.0624 
@<TRIPOS>BOND
     1    1    2 1    
     2    1   72 1    
     3    1   73 1    
     4    1   74 1    
     5    2    3 2    
     6    2    4 am   BACKBONE|DICT|INTERRES
     7    4    5 1    
     8    4   75 1    
     9    5    6 1    
    10    5   35 1    
    11    5   76 1    
    12    6    7 1    
    13    6   77 1    
    14    6   78 1    
    15    7    8 1    
    16    8    9 1    
    17    8   79 1    
    18    8   80 1    
    19    9   10 ar   
    20    9   14 ar   
    21   10   11 ar   
    22   10   81 1    
    23   11   12 ar   
    24   11   71 1    
    25   12   13 ar   
    26   12   82 1    
    27   13   14 ar   
    28   13   15 1    
    29   14   83 1    
    30   15   16 1    
    31   15   84 1    
    32   15   85 1    
    33   16   17 1    
    34   17   18 1    
    35   17   86 1    
    36   17   87 1    
    37   18   19 1    
    38   18   37 1    
    39   18   88 1    
    40   19   20 am   BACKBONE|DICT|INTERRES
    41   19   89 1    
    42   20   21 2    
    43   20   22 1    
    44   22   23 1    
    45   22   24 1    
    46   22   90 1    
    47   23   91 1    
    48   23   92 1    
    49   23   93 1    
    50   24   25 am   BACKBONE|DICT|INTERRES
    51   24   94 1    
    52   25   26 2    
    53   25   27 1    
    54   27   28 1    
    55   27   29 1    
    56   27   95 1    
    57   28   96 1    
    58   28   97 1    
    59   28   98 1    
    60   29   30 am   BACKBONE|DICT|INTERRES
    61   29   99 1    
    62   30   31 2    
    63   30   32 1    
    64   32   33 1    
    65   32   34 1    
    66   32  100 1    
    67   33  101 1    
    68   33  102 1    
    69   33  103 1    
    70   34   35 am   BACKBONE|DICT|INTERRES
    71   34  104 1    
    72   35   36 2    
    73   37   38 2    
    74   37   39 am   BACKBONE|DICT|INTERRES
    75   39   40 1    
    76   39  105 1    
    77   40   41 1    
    78   40   42 1    
    79   40  106 1    
    80   41  107 1    
    81   41  108 1    
    82   41  109 1    
    83   42   43 2    
    84   42   44 am   BACKBONE|DICT|INTERRES
    85   44   45 1    
    86   44  110 1    
    87   45   46 1    
    88   45   47 1    
    89   45  111 1    
    90   46  112 1    
    91   46  113 1    
    92   46  114 1    
    93   47   48 2    
    94   47   49 am   BACKBONE|DICT|INTERRES
    95   49   50 1    
    96   49  115 1    
    97   50   51 1    
    98   50   52 1    
    99   50  116 1    
   100   51  117 1    
   101   51  118 1    
   102   51  119 1    
   103   52   53 2    
   104   52   54 am   BACKBONE|DICT|INTERRES
   105   54   55 1    
   106   54  120 1    
   107   55   56 1    
   108   55   57 1    
   109   55  121 1    
   110   56  122 1    
   111   56  123 1    
   112   56  124 1    
   113   57   58 2    
   114   57   59 am   BACKBONE|DICT|INTERRES
   115   59   60 1    
   116   59  125 1    
   117   60   61 1    
   118   60   62 1    
   119   60  126 1    
   120   61  127 1    
   121   61  128 1    
   122   61  129 1    
   123   62   63 2    
   124   62   64 am   BACKBONE|DICT|INTERRES
   125   64   65 1    
   126   64  130 1    
   127   65   66 1    
   128   65   69 1    
   129   65  131 1    
   130   66   67 am   BACKBONE|DICT|INTERRES
   131   66   68 2    
   132   67  132 1    
   133   67  133 1    
   134   69   70 1    
   135   69  134 1    
   136   69  135 1    
   137   70   71 1    
   138   71  136 1    
   139   71  137 1    
@<TRIPOS>SUBSTRUCTURE
     1 UNK         1 GROUP             0       ****    0 ROOT    
