@<TRIPOS>MOLECULE
3R137
137   139    1
SMALL
USER_CHARGES


@<TRIPOS>ATOM
      1 CA         26.1101   -6.4617    0.7071 C.3       0 UNK        -0.2020 
      2 C          26.1549   -5.6949   -0.6065 C.2       0 UNK         0.4855 
      3 O          25.5353   -6.1251   -1.5789 O.2       0 UNK        -0.5197 
      4 N          26.8844   -4.5695   -0.6293 N.am      1 UNK        -0.4892 
      5 CA         27.0741   -3.6579   -1.7676 C.3       1 UNK         0.0835 
      6 C6         27.8637   -4.2815   -2.9538 C.3       12 UNK        -0.0855 
      7 S7         29.5133   -4.9080   -2.4814 S.3       12 UNK        -0.2931 
      8 C8         30.5917   -4.1507   -3.7545 C.3       12 UNK         0.0378 
      9 C9         30.9827   -2.6850   -3.5355 C.ar      12 UNK        -0.0802 
     10 C10        31.9012   -2.1045   -4.4178 C.ar      12 UNK        -0.0944 
     11 C11        32.3195   -0.7800   -4.2523 C.ar      12 UNK        -0.0787 
     12 C12        31.7888   -0.0158   -3.2101 C.ar      12 UNK        -0.0862 
     13 C13        30.8693   -0.5771   -2.3211 C.ar      12 UNK        -0.0733 
     14 C14        30.4830   -1.9100   -2.4812 C.ar      12 UNK        -0.0832 
     15 C15        30.3101    0.2458   -1.1696 C.3       12 UNK         0.0240 
     16 S16        29.0946    1.4778   -1.7323 S.3       12 UNK        -0.2522 
     17 C17        27.7933    0.4415   -2.4873 C.3       12 UNK        -0.0967 
     18 CA         27.7993    0.5123   -4.0363 C.3       5 UNK         0.0660 
     19 N          26.9764   -0.5334   -4.6493 N.am      5 UNK        -0.4015 
     20 C          27.0937   -0.9277   -5.9268 C.2       4 UNK         0.4946 
     21 O          28.0026   -0.5631   -6.6729 O.2       4 UNK        -0.5353 
     22 CA         25.9936   -1.8411   -6.4964 C.3       4 UNK         0.0277 
     23 CB         26.4385   -3.3120   -6.5286 C.3       4 UNK        -0.1981 
     24 N          24.7209   -1.7196   -5.7791 N.am      4 UNK        -0.4209 
     25 C          23.8882   -0.6769   -5.9174 C.2       3 UNK         0.4942 
     26 O          24.1028    0.2631   -6.6796 O.2       3 UNK        -0.5208 
     27 CA         22.6305   -0.6381   -5.0315 C.3       3 UNK         0.0250 
     28 CB         21.4624   -1.3533   -5.7279 C.3       3 UNK        -0.1990 
     29 N          22.8231   -1.2044   -3.6947 N.am      3 UNK        -0.4232 
     30 C          23.7250   -0.7846   -2.7968 C.2       2 UNK         0.4993 
     31 O          24.5058    0.1474   -3.0020 O.2       2 UNK        -0.5286 
     32 CA         23.8252   -1.5709   -1.4729 C.3       2 UNK         0.0209 
     33 CB         22.6857   -2.5939   -1.2594 C.3       2 UNK        -0.1931 
     34 N          25.1249   -2.2416   -1.3183 N.am      2 UNK        -0.4546 
     35 C          25.7332   -3.0368   -2.2137 C.2       1 UNK         0.5154 
     36 O          25.2750   -3.2860   -3.3306 O.2       1 UNK        -0.5181 
     37 C          27.3463    1.8921   -4.5511 C.2       5 UNK         0.5014 
     38 O          28.1833    2.6750   -4.9999 O.2       5 UNK        -0.5248 
     39 N          26.0281    2.1464   -4.5121 N.am      6 UNK        -0.4434 
     40 CA         25.3987    3.3899   -4.9691 C.3       6 UNK         0.0363 
     41 CB         23.8954    3.3531   -4.6522 C.3       6 UNK        -0.1936 
     42 C          25.6346    3.6856   -6.4612 C.2       6 UNK         0.5081 
     43 O          25.9371    4.8265   -6.8116 O.2       6 UNK        -0.5248 
     44 N          25.5197    2.6533   -7.3076 N.am      7 UNK        -0.4718 
     45 CA         25.8090    2.7209   -8.7428 C.3       7 UNK         0.0273 
     46 CB         25.1156    1.5438   -9.4488 C.3       7 UNK        -0.1935 
     47 C          27.3139    2.7171   -9.0693 C.2       7 UNK         0.5018 
     48 O          27.6695    3.0660  -10.1954 O.2       7 UNK        -0.5186 
     49 N          28.1521    2.3101   -8.1021 N.am      8 UNK        -0.4240 
     50 CA         29.6004    2.0943   -8.1927 C.3       8 UNK         0.0235 
     51 CB         30.3493    3.4316   -8.3691 C.3       8 UNK        -0.2000 
     52 C          29.9465    1.0589   -9.2773 C.2       8 UNK         0.4941 
     53 O          30.5485    1.4043  -10.2965 O.2       8 UNK        -0.5273 
     54 N          29.5033   -0.1859   -9.0528 N.am      9 UNK        -0.4262 
     55 CA         29.6742   -1.3363   -9.9431 C.3       9 UNK         0.0264 
     56 CB         28.8761   -2.5240   -9.3802 C.3       9 UNK        -0.1955 
     57 C          31.1573   -1.6970  -10.1467 C.2       9 UNK         0.5031 
     58 O          31.7271   -2.4371   -9.3408 O.2       9 UNK        -0.5390 
     59 N          31.7489   -1.1420  -11.2133 N.am      10 UNK        -0.4204 
     60 CA         33.1610   -1.1864  -11.6071 C.3       10 UNK         0.0237 
     61 CB         33.6498   -2.6253  -11.8771 C.3       10 UNK        -0.1985 
     62 C          34.0682   -0.4319  -10.6212 C.2       10 UNK         0.4970 
     63 O          34.6120    0.6105  -10.9889 O.2       10 UNK        -0.4914 
     64 N          34.1957   -0.9634   -9.3989 N.am      11 UNK        -0.4285 
     65 CA         35.0028   -0.4362   -8.2873 C.3       11 UNK         0.1007 
     66 C          36.5056   -0.2221   -8.6561 C.2       11 UNK         0.5703 
     67 N          37.1995    0.7346   -8.0524 N.am      11 UNK        -0.7361 
     68 O          37.0742   -0.9702   -9.4502 O.2       11 UNK        -0.4986 
     69 C69        34.3107    0.7745   -7.5903 C.3       12 UNK        -0.0947 
     70 S70        32.7446    0.2952   -6.7842 S.3       12 UNK        -0.2240 
     71 C71        33.3926   -0.1973   -5.1583 C.3       12 UNK         0.0194 
     72 H72        26.7022   -5.9790    1.4843 H         1 UNK         0.0906 
     73 H73        25.0826   -6.5376    1.0620 H         1 UNK         0.0906 
     74 H74        26.4968   -7.4705    0.5650 H         1 UNK         0.0906 
     75 H75        27.3658   -4.2962    0.2166 H         1 UNK         0.3140 
     76 H76        27.6650   -2.8285   -1.3826 H         1 UNK         0.1085 
     77 H77        27.9920   -3.5348   -3.7393 H         1 UNK         0.0836 
     78 H78        27.3031   -5.1030   -3.4036 H         1 UNK         0.0836 
     79 H79        30.1169   -4.2532   -4.7316 H         1 UNK         0.0731 
     80 H80        31.5072   -4.7425   -3.7991 H         1 UNK         0.0731 
     81 H81        32.3121   -2.6923   -5.2279 H         1 UNK         0.1312 
     82 H82        32.1029    1.0107   -3.0772 H         1 UNK         0.1406 
     83 H83        29.8006   -2.3371   -1.7656 H         1 UNK         0.1631 
     84 H84        31.1279    0.7633   -0.6661 H         1 UNK         0.0717 
     85 H85        29.8483   -0.3954   -0.4171 H         1 UNK         0.0717 
     86 H86        27.9307   -0.5879   -2.1613 H         1 UNK         0.0934 
     87 H87        26.8317    0.7525   -2.0769 H         1 UNK         0.0934 
     88 H88        28.8280    0.3555   -4.3711 H         1 UNK         0.0739 
     89 H89        26.1588   -0.8253   -4.1303 H         1 UNK         0.3093 
     90 H90        25.8334   -1.5274   -7.5304 H         1 UNK         0.0818 
     91 H91        27.4166   -3.4206   -6.9960 H         1 UNK         0.0819 
     92 H92        26.5104   -3.7432   -5.5329 H         1 UNK         0.0819 
     93 H93        25.7383   -3.9202   -7.1011 H         1 UNK         0.0819 
     94 H94        24.5251   -2.4245   -5.0750 H         1 UNK         0.3041 
     95 H95        22.3562    0.4102   -4.9012 H         1 UNK         0.0784 
     96 H96        21.2833   -0.9331   -6.7188 H         1 UNK         0.0793 
     97 H97        21.6590   -2.4186   -5.8563 H         1 UNK         0.0793 
     98 H98        20.5367   -1.2473   -5.1618 H         1 UNK         0.0793 
     99 H99        22.2491   -1.9991   -3.4529 H         1 UNK         0.3024 
    100 H100       23.7558   -0.8245   -0.6796 H         1 UNK         0.1171 
    101 H101       22.7540   -3.0481   -0.2707 H         1 UNK         0.0786 
    102 H102       21.7055   -2.1186   -1.3197 H         1 UNK         0.0786 
    103 H103       22.7153   -3.4039   -1.9896 H         1 UNK         0.0786 
    104 H104       25.5837   -2.0911   -0.4304 H         1 UNK         0.2977 
    105 H105       25.4143    1.4528   -4.0913 H         1 UNK         0.3127 
    106 H106       25.8458    4.2061   -4.3978 H         1 UNK         0.0770 
    107 H107       23.3859    2.5660   -5.2078 H         1 UNK         0.0814 
    108 H108       23.4193    4.2979   -4.9174 H         1 UNK         0.0814 
    109 H109       23.7154    3.1852   -3.5901 H         1 UNK         0.0814 
    110 H110       25.1772    1.7611   -6.9552 H         1 UNK         0.2983 
    111 H111       25.3917    3.6500   -9.1375 H         1 UNK         0.0947 
    112 H112       25.2661    1.5898  -10.5282 H         1 UNK         0.0806 
    113 H113       24.0400    1.5518   -9.2710 H         1 UNK         0.0806 
    114 H114       25.5045    0.5843   -9.1054 H         1 UNK         0.0806 
    115 H115       27.7434    2.0679   -7.2091 H         1 UNK         0.3000 
    116 H116       29.9099    1.6673   -7.2369 H         1 UNK         0.0850 
    117 H117       31.4283    3.2717   -8.3677 H         1 UNK         0.0810 
    118 H118       30.1209    4.1206   -7.5559 H         1 UNK         0.0810 
    119 H119       30.0941    3.9228   -9.3084 H         1 UNK         0.0810 
    120 H120       29.0095   -0.3631   -8.1779 H         1 UNK         0.3040 
    121 H121       29.2437   -1.0759  -10.9121 H         1 UNK         0.0766 
    122 H122       27.8144   -2.2888   -9.3045 H         1 UNK         0.0812 
    123 H123       29.2306   -2.8067   -8.3883 H         1 UNK         0.0812 
    124 H124       28.9715   -3.3997  -10.0233 H         1 UNK         0.0812 
    125 H125       31.1927   -0.4752  -11.7334 H         1 UNK         0.3205 
    126 H126       33.2174   -0.6484  -12.5549 H         1 UNK         0.0754 
    127 H127       34.6818   -2.6224  -12.2304 H         1 UNK         0.0769 
    128 H128       33.0462   -3.1078  -12.6459 H         1 UNK         0.0769 
    129 H129       33.6168   -3.2533  -10.9868 H         1 UNK         0.0769 
    130 H130       33.6269   -1.7772   -9.1908 H         1 UNK         0.2981 
    131 H131       35.0383   -1.2487   -7.5616 H         1 UNK         0.0541 
    132 H132       38.1749    0.8479   -8.2806 H         1 UNK         0.3459 
    133 H133       36.7666    1.3512   -7.3839 H         1 UNK         0.3459 
    134 H134       34.1044    1.5660   -8.3125 H         1 UNK         0.0612 
    135 H135       34.9481    1.2208   -6.8266 H         1 UNK         0.0612 
    136 H136       34.1839   -0.9359   -5.2928 H         1 UNK         0.0624 
    137 H137       33.8594    0.6678   -4.6846 H         1 UNK         0.0624 
@<TRIPOS>BOND
     1    1    2 1    
     2    1   72 1    
     3    1   73 1    
     4    1   74 1    
     5    2    3 2    
     6    2    4 am   BACKBONE|DICT|INTERRES
     7    4    5 1    
     8    4   75 1    
     9    5    6 1    
    10    5   35 1    
    11    5   76 1    
    12    6    7 1    
    13    6   77 1    
    14    6   78 1    
    15    7    8 1    
    16    8    9 1    
    17    8   79 1    
    18    8   80 1    
    19    9   10 ar   
    20    9   14 ar   
    21   10   11 ar   
    22   10   81 1    
    23   11   12 ar   
    24   11   71 1    
    25   12   13 ar   
    26   12   82 1    
    27   13   14 ar   
    28   13   15 1    
    29   14   83 1    
    30   15   16 1    
    31   15   84 1    
    32   15   85 1    
    33   16   17 1    
    34   17   18 1    
    35   17   86 1    
    36   17   87 1    
    37   18   19 1    
    38   18   37 1    
    39   18   88 1    
    40   19   20 am   BACKBONE|DICT|INTERRES
    41   19   89 1    
    42   20   21 2    
    43   20   22 1    
    44   22   23 1    
    45   22   24 1    
    46   22   90 1    
    47   23   91 1    
    48   23   92 1    
    49   23   93 1    
    50   24   25 am   BACKBONE|DICT|INTERRES
    51   24   94 1    
    52   25   26 2    
    53   25   27 1    
    54   27   28 1    
    55   27   29 1    
    56   27   95 1    
    57   28   96 1    
    58   28   97 1    
    59   28   98 1    
    60   29   30 am   BACKBONE|DICT|INTERRES
    61   29   99 1    
    62   30   31 2    
    63   30   32 1    
    64   32   33 1    
    65   32   34 1    
    66   32  100 1    
    67   33  101 1    
    68   33  102 1    
    69   33  103 1    
    70   34   35 am   BACKBONE|DICT|INTERRES
    71   34  104 1    
    72   35   36 2    
    73   37   38 2    
    74   37   39 am   BACKBONE|DICT|INTERRES
    75   39   40 1    
    76   39  105 1    
    77   40   41 1    
    78   40   42 1    
    79   40  106 1    
    80   41  107 1    
    81   41  108 1    
    82   41  109 1    
    83   42   43 2    
    84   42   44 am   BACKBONE|DICT|INTERRES
    85   44   45 1    
    86   44  110 1    
    87   45   46 1    
    88   45   47 1    
    89   45  111 1    
    90   46  112 1    
    91   46  113 1    
    92   46  114 1    
    93   47   48 2    
    94   47   49 am   BACKBONE|DICT|INTERRES
    95   49   50 1    
    96   49  115 1    
    97   50   51 1    
    98   50   52 1    
    99   50  116 1    
   100   51  117 1    
   101   51  118 1    
   102   51  119 1    
   103   52   53 2    
   104   52   54 am   BACKBONE|DICT|INTERRES
   105   54   55 1    
   106   54  120 1    
   107   55   56 1    
   108   55   57 1    
   109   55  121 1    
   110   56  122 1    
   111   56  123 1    
   112   56  124 1    
   113   57   58 2    
   114   57   59 am   BACKBONE|DICT|INTERRES
   115   59   60 1    
   116   59  125 1    
   117   60   61 1    
   118   60   62 1    
   119   60  126 1    
   120   61  127 1    
   121   61  128 1    
   122   61  129 1    
   123   62   63 2    
   124   62   64 am   BACKBONE|DICT|INTERRES
   125   64   65 1    
   126   64  130 1    
   127   65   66 1    
   128   65   69 1    
   129   65  131 1    
   130   66   67 am   BACKBONE|DICT|INTERRES
   131   66   68 2    
   132   67  132 1    
   133   67  133 1    
   134   69   70 1    
   135   69  134 1    
   136   69  135 1    
   137   70   71 1    
   138   71  136 1    
   139   71  137 1    
@<TRIPOS>SUBSTRUCTURE
     1 UNK         1 GROUP             0       ****    0 ROOT    
