@<TRIPOS>MOLECULE
3R137
137   139    1
SMALL
USER_CHARGES


@<TRIPOS>ATOM
      1 CA         28.5279    1.1665   -0.9344 C.3       0 UNK        -0.2020 
      2 C          28.2437   -0.1878   -1.5657 C.2       0 UNK         0.4855 
      3 O          27.7124   -0.2495   -2.6739 O.2       0 UNK        -0.5197 
      4 N          28.5994   -1.2763   -0.8729 N.am      1 UNK        -0.4892 
      5 CA         28.4031   -2.6498   -1.3452 C.3       1 UNK         0.0835 
      6 C6         29.1941   -3.6941   -0.5130 C.3       12 UNK        -0.0855 
      7 S7         30.9411   -3.2505   -0.2040 S.3       12 UNK        -0.2931 
      8 C8         31.7756   -3.7856   -1.7364 C.3       12 UNK         0.0378 
      9 C9         31.4433   -2.8879   -2.9220 C.ar      12 UNK        -0.0802 
     10 C10        31.6881   -1.5111   -2.8551 C.ar      12 UNK        -0.0944 
     11 C11        31.3522   -0.6752   -3.9232 C.ar      12 UNK        -0.0787 
     12 C12        30.7708   -1.2289   -5.0660 C.ar      12 UNK        -0.0862 
     13 C13        30.5541   -2.6048   -5.1626 C.ar      12 UNK        -0.0733 
     14 C14        30.8924   -3.4319   -4.0876 C.ar      12 UNK        -0.0832 
     15 C15        29.9764   -3.1889   -6.4431 C.3       12 UNK         0.0240 
     16 S16        28.3253   -3.9171   -6.2143 S.3       12 UNK        -0.2522 
     17 C17        27.3683   -2.5226   -5.5419 C.3       12 UNK        -0.0967 
     18 CA         26.8225   -1.5548   -6.6262 C.3       5 UNK         0.0660 
     19 N          25.3754   -1.3622   -6.4866 N.am      5 UNK        -0.4015 
     20 C          24.6160   -0.5367   -7.2190 C.2       4 UNK         0.4946 
     21 O          25.0218    0.0412   -8.2272 O.2       4 UNK        -0.5353 
     22 CA         23.1896   -0.2450   -6.7133 C.3       4 UNK         0.0277 
     23 CB         22.1515   -0.9304   -7.6152 C.3       4 UNK        -0.1981 
     24 N          22.9442   -0.6282   -5.3166 N.am      4 UNK        -0.4209 
     25 C          23.6102   -0.1913   -4.2355 C.2       3 UNK         0.4942 
     26 O          24.5134    0.6448   -4.2811 O.2       3 UNK        -0.5208 
     27 CA         23.2386   -0.8346   -2.8848 C.3       3 UNK         0.0250 
     28 CB         21.7401   -1.1944   -2.7811 C.3       3 UNK        -0.1990 
     29 N          24.0651   -2.0039   -2.5459 N.am      3 UNK        -0.4232 
     30 C          24.2896   -3.1039   -3.2810 C.2       2 UNK         0.4993 
     31 O          23.8964   -3.2466   -4.4402 O.2       2 UNK        -0.5286 
     32 CA         25.1203   -4.2237   -2.6195 C.3       2 UNK         0.0209 
     33 CB         25.1320   -5.5186   -3.4547 C.3       2 UNK        -0.1931 
     34 N          26.5055   -3.8124   -2.3804 N.am      2 UNK        -0.4546 
     35 C          26.9030   -3.0064   -1.3893 C.2       1 UNK         0.5154 
     36 O          26.1346   -2.5620   -0.5305 O.2       1 UNK        -0.5181 
     37 C          27.6039   -0.2187   -6.6211 C.2       5 UNK         0.5014 
     38 O          28.5270   -0.0601   -7.4205 O.2       5 UNK        -0.5248 
     39 N          27.1968    0.7348   -5.7668 N.am      6 UNK        -0.4434 
     40 CA         27.7715    2.0818   -5.7000 C.3       6 UNK         0.0363 
     41 CB         27.3302    2.7707   -4.3999 C.3       6 UNK        -0.1936 
     42 C          27.4062    2.9640   -6.9058 C.2       6 UNK         0.5081 
     43 O          28.1925    3.8412   -7.2605 O.2       6 UNK        -0.5248 
     44 N          26.2371    2.7245   -7.5182 N.am      7 UNK        -0.4718 
     45 CA         25.7953    3.4066   -8.7389 C.3       7 UNK         0.0273 
     46 CB         24.2701    3.2865   -8.8925 C.3       7 UNK        -0.1935 
     47 C          26.5265    2.8674   -9.9786 C.2       7 UNK         0.5018 
     48 O          26.8817    3.6522  -10.8586 O.2       7 UNK        -0.5186 
     49 N          26.7789    1.5494  -10.0026 N.am      8 UNK        -0.4240 
     50 CA         27.6702    0.8898  -10.9629 C.3       8 UNK         0.0235 
     51 CB         27.5113   -0.6349  -10.8446 C.3       8 UNK        -0.2000 
     52 C          29.1441    1.2997  -10.7743 C.2       8 UNK         0.4941 
     53 O          29.8840    1.3635  -11.7562 O.2       8 UNK        -0.5273 
     54 N          29.5240    1.5792   -9.5184 N.am      9 UNK        -0.4262 
     55 CA         30.8236    2.0607   -9.0401 C.3       9 UNK         0.0264 
     56 CB         31.1648    3.4393   -9.6430 C.3       9 UNK        -0.1955 
     57 C          31.9584    1.0344   -9.2020 C.2       9 UNK         0.5031 
     58 O          33.1264    1.4188   -9.2891 O.2       9 UNK        -0.5390 
     59 N          31.6154   -0.2606   -9.1915 N.am      10 UNK        -0.4204 
     60 CA         32.5519   -1.3848   -9.2940 C.3       10 UNK         0.0237 
     61 CB         31.8216   -2.5857   -9.9255 C.3       10 UNK        -0.1985 
     62 C          33.1997   -1.7195   -7.9340 C.2       10 UNK         0.4970 
     63 O          33.2175   -2.8830   -7.5304 O.2       10 UNK        -0.4914 
     64 N          33.6949   -0.6869   -7.2420 N.am      11 UNK        -0.4285 
     65 CA         34.2294   -0.7554   -5.8727 C.3       11 UNK         0.1007 
     66 C          35.6574   -1.3626   -5.7568 C.2       11 UNK         0.5703 
     67 N          36.3667   -1.6149   -6.8509 N.am      11 UNK        -0.7361 
     68 O          36.1301   -1.6154   -4.6512 O.2       11 UNK        -0.4986 
     69 C69        34.1414    0.6158   -5.1417 C.3       12 UNK        -0.0947 
     70 S70        32.5236    1.4556   -5.2950 S.3       12 UNK        -0.2240 
     71 C71        31.6167    0.8229   -3.8441 C.3       12 UNK         0.0194 
     72 H72        27.6109    1.7524   -0.8771 H         1 UNK         0.0906 
     73 H73        29.2484    1.7167   -1.5388 H         1 UNK         0.0906 
     74 H74        28.9326    1.0699    0.0729 H         1 UNK         0.0906 
     75 H75        29.0302   -1.1845    0.0356 H         1 UNK         0.3140 
     76 H76        28.7729   -2.6818   -2.3710 H         1 UNK         0.1085 
     77 H77        29.1602   -4.6719   -0.9974 H         1 UNK         0.0836 
     78 H78        28.7248   -3.8289    0.4639 H         1 UNK         0.0836 
     79 H79        32.8541   -3.7620   -1.5743 H         1 UNK         0.0731 
     80 H80        31.5186   -4.8259   -1.9422 H         1 UNK         0.0731 
     81 H81        32.1265   -1.0912   -1.9602 H         1 UNK         0.1312 
     82 H82        30.5180   -0.5839   -5.8951 H         1 UNK         0.1406 
     83 H83        30.7172   -4.4967   -4.1607 H         1 UNK         0.1631 
     84 H84        30.6525   -3.9575   -6.8202 H         1 UNK         0.0717 
     85 H85        29.9168   -2.4277   -7.2214 H         1 UNK         0.0717 
     86 H86        26.5421   -2.9891   -5.0118 H         1 UNK         0.0934 
     87 H87        27.9365   -2.0114   -4.7620 H         1 UNK         0.0934 
     88 H88        26.9647   -1.9986   -7.6136 H         1 UNK         0.0739 
     89 H89        24.9272   -1.8384   -5.7123 H         1 UNK         0.3093 
     90 H90        23.0452    0.8350   -6.7826 H         1 UNK         0.0818 
     91 H91        22.2889   -0.6419   -8.6585 H         1 UNK         0.0819 
     92 H92        22.2289   -2.0173   -7.5645 H         1 UNK         0.0819 
     93 H93        21.1354   -0.6510   -7.3361 H         1 UNK         0.0819 
     94 H94        22.2683   -1.3650   -5.1711 H         1 UNK         0.3041 
     95 H95        23.4471   -0.0804   -2.1241 H         1 UNK         0.0784 
     96 H96        21.1107   -0.3460   -3.0542 H         1 UNK         0.0793 
     97 H97        21.4663   -2.0314   -3.4243 H         1 UNK         0.0793 
     98 H98        21.4770   -1.4700   -1.7597 H         1 UNK         0.0793 
     99 H99        24.5315   -1.9631   -1.6443 H         1 UNK         0.3024 
    100 H100       24.6464   -4.4529   -1.6618 H         1 UNK         0.1171 
    101 H101       24.1168   -5.8704   -3.6437 H         1 UNK         0.0786 
    102 H102       25.6119   -5.3738   -4.4237 H         1 UNK         0.0786 
    103 H103       25.6586   -6.3203   -2.9366 H         1 UNK         0.0786 
    104 H104       27.1890   -4.1436   -3.0461 H         1 UNK         0.2977 
    105 H105       26.4256    0.5417   -5.1341 H         1 UNK         0.3127 
    106 H106       28.8594    1.9842   -5.6811 H         1 UNK         0.0770 
    107 H107       26.2446    2.8525   -4.3340 H         1 UNK         0.0814 
    108 H108       27.7399    3.7794   -4.3319 H         1 UNK         0.0814 
    109 H109       27.6783    2.2253   -3.5256 H         1 UNK         0.0814 
    110 H110       25.6716    1.9496   -7.1996 H         1 UNK         0.2983 
    111 H111       26.0392    4.4677   -8.6471 H         1 UNK         0.0947 
    112 H112       23.9502    2.2557   -9.0429 H         1 UNK         0.0806 
    113 H113       23.9240    3.8588   -9.7541 H         1 UNK         0.0806 
    114 H114       23.7507    3.6755   -8.0166 H         1 UNK         0.0806 
    115 H115       26.3632    0.9695   -9.2779 H         1 UNK         0.3000 
    116 H116       27.3672    1.1916  -11.9677 H         1 UNK         0.0850 
    117 H117       28.1374   -1.1497  -11.5746 H         1 UNK         0.0810 
    118 H118       26.4809   -0.9407  -11.0270 H         1 UNK         0.0810 
    119 H119       27.7963   -0.9979   -9.8571 H         1 UNK         0.0810 
    120 H120       28.8574    1.3684   -8.7824 H         1 UNK         0.3040 
    121 H121       30.7048    2.1986   -7.9642 H         1 UNK         0.0766 
    122 H122       31.3669    3.3757  -10.7125 H         1 UNK         0.0812 
    123 H123       32.0503    3.8651   -9.1695 H         1 UNK         0.0812 
    124 H124       30.3483    4.1465   -9.4952 H         1 UNK         0.0812 
    125 H125       30.6396   -0.4859   -9.0549 H         1 UNK         0.3205 
    126 H126       33.3639   -1.1059   -9.9690 H         1 UNK         0.0754 
    127 H127       32.5013   -3.4268  -10.0684 H         1 UNK         0.0769 
    128 H128       31.4171   -2.3307  -10.9053 H         1 UNK         0.0769 
    129 H129       30.9967   -2.9349   -9.3048 H         1 UNK         0.0769 
    130 H130       33.6585    0.2329   -7.6659 H         1 UNK         0.2981 
    131 H131       33.5942   -1.4513   -5.3243 H         1 UNK         0.0541 
    132 H132       37.2888   -2.0117   -6.7620 H         1 UNK         0.3459 
    133 H133       35.9873   -1.4139   -7.7618 H         1 UNK         0.3459 
    134 H134       34.8942    1.2979   -5.5406 H         1 UNK         0.0612 
    135 H135       34.3732    0.4977   -4.0817 H         1 UNK         0.0612 
    136 H136       32.1720    1.0765   -2.9399 H         1 UNK         0.0624 
    137 H137       30.6590    1.3407   -3.7772 H         1 UNK         0.0624 
@<TRIPOS>BOND
     1    1    2 1    
     2    1   72 1    
     3    1   73 1    
     4    1   74 1    
     5    2    3 2    
     6    2    4 am   BACKBONE|DICT|INTERRES
     7    4    5 1    
     8    4   75 1    
     9    5    6 1    
    10    5   35 1    
    11    5   76 1    
    12    6    7 1    
    13    6   77 1    
    14    6   78 1    
    15    7    8 1    
    16    8    9 1    
    17    8   79 1    
    18    8   80 1    
    19    9   10 ar   
    20    9   14 ar   
    21   10   11 ar   
    22   10   81 1    
    23   11   12 ar   
    24   11   71 1    
    25   12   13 ar   
    26   12   82 1    
    27   13   14 ar   
    28   13   15 1    
    29   14   83 1    
    30   15   16 1    
    31   15   84 1    
    32   15   85 1    
    33   16   17 1    
    34   17   18 1    
    35   17   86 1    
    36   17   87 1    
    37   18   19 1    
    38   18   37 1    
    39   18   88 1    
    40   19   20 am   BACKBONE|DICT|INTERRES
    41   19   89 1    
    42   20   21 2    
    43   20   22 1    
    44   22   23 1    
    45   22   24 1    
    46   22   90 1    
    47   23   91 1    
    48   23   92 1    
    49   23   93 1    
    50   24   25 am   BACKBONE|DICT|INTERRES
    51   24   94 1    
    52   25   26 2    
    53   25   27 1    
    54   27   28 1    
    55   27   29 1    
    56   27   95 1    
    57   28   96 1    
    58   28   97 1    
    59   28   98 1    
    60   29   30 am   BACKBONE|DICT|INTERRES
    61   29   99 1    
    62   30   31 2    
    63   30   32 1    
    64   32   33 1    
    65   32   34 1    
    66   32  100 1    
    67   33  101 1    
    68   33  102 1    
    69   33  103 1    
    70   34   35 am   BACKBONE|DICT|INTERRES
    71   34  104 1    
    72   35   36 2    
    73   37   38 2    
    74   37   39 am   BACKBONE|DICT|INTERRES
    75   39   40 1    
    76   39  105 1    
    77   40   41 1    
    78   40   42 1    
    79   40  106 1    
    80   41  107 1    
    81   41  108 1    
    82   41  109 1    
    83   42   43 2    
    84   42   44 am   BACKBONE|DICT|INTERRES
    85   44   45 1    
    86   44  110 1    
    87   45   46 1    
    88   45   47 1    
    89   45  111 1    
    90   46  112 1    
    91   46  113 1    
    92   46  114 1    
    93   47   48 2    
    94   47   49 am   BACKBONE|DICT|INTERRES
    95   49   50 1    
    96   49  115 1    
    97   50   51 1    
    98   50   52 1    
    99   50  116 1    
   100   51  117 1    
   101   51  118 1    
   102   51  119 1    
   103   52   53 2    
   104   52   54 am   BACKBONE|DICT|INTERRES
   105   54   55 1    
   106   54  120 1    
   107   55   56 1    
   108   55   57 1    
   109   55  121 1    
   110   56  122 1    
   111   56  123 1    
   112   56  124 1    
   113   57   58 2    
   114   57   59 am   BACKBONE|DICT|INTERRES
   115   59   60 1    
   116   59  125 1    
   117   60   61 1    
   118   60   62 1    
   119   60  126 1    
   120   61  127 1    
   121   61  128 1    
   122   61  129 1    
   123   62   63 2    
   124   62   64 am   BACKBONE|DICT|INTERRES
   125   64   65 1    
   126   64  130 1    
   127   65   66 1    
   128   65   69 1    
   129   65  131 1    
   130   66   67 am   BACKBONE|DICT|INTERRES
   131   66   68 2    
   132   67  132 1    
   133   67  133 1    
   134   69   70 1    
   135   69  134 1    
   136   69  135 1    
   137   70   71 1    
   138   71  136 1    
   139   71  137 1    
@<TRIPOS>SUBSTRUCTURE
     1 UNK         1 GROUP             0       ****    0 ROOT    
