@<TRIPOS>MOLECULE
3R137
137   139    1
SMALL
USER_CHARGES


@<TRIPOS>ATOM
      1 CA         24.5618   -5.2296   -4.1782 C.3       0 UNK        -0.2020 
      2 C          25.1571   -4.2674   -3.1637 C.2       0 UNK         0.4855 
      3 O          25.3378   -3.0898   -3.4751 O.2       0 UNK        -0.5197 
      4 N          25.4187   -4.7724   -1.9495 N.am      1 UNK        -0.4892 
      5 CA         26.0176   -4.1272   -0.7644 C.3       1 UNK         0.0835 
      6 C6         27.5414   -3.8357   -0.9109 C.3       12 UNK        -0.0855 
      7 S7         28.0154   -2.3017   -1.7928 S.3       12 UNK        -0.2931 
      8 C8         29.8386   -2.4154   -1.7316 C.3       12 UNK         0.0378 
      9 C9         30.4514   -2.8137   -3.0706 C.ar      12 UNK        -0.0802 
     10 C10        31.5304   -2.0930   -3.5934 C.ar      12 UNK        -0.0944 
     11 C11        32.0840   -2.4292   -4.8351 C.ar      12 UNK        -0.0787 
     12 C12        31.5468   -3.5038   -5.5542 C.ar      12 UNK        -0.0862 
     13 C13        30.4846   -4.2485   -5.0312 C.ar      12 UNK        -0.0733 
     14 C14        29.9562   -3.9071   -3.7846 C.ar      12 UNK        -0.0832 
     15 C15        29.9176   -5.4411   -5.7904 C.3       12 UNK         0.0240 
     16 S16        28.7502   -4.9609   -7.1051 S.3       12 UNK        -0.2522 
     17 C17        27.4153   -4.1086   -6.1885 C.3       12 UNK        -0.0967 
     18 CA         27.0443   -2.7291   -6.7833 C.3       5 UNK         0.0660 
     19 N          25.8623   -2.1513   -6.1411 N.am      5 UNK        -0.4015 
     20 C          25.1377   -1.1574   -6.6758 C.2       4 UNK         0.4946 
     21 O          25.3510   -0.6715   -7.7875 O.2       4 UNK        -0.5353 
     22 CA         24.0247   -0.5734   -5.7958 C.3       4 UNK         0.0277 
     23 CB         22.8032   -1.5058   -5.7558 C.3       4 UNK        -0.1981 
     24 N          24.4923   -0.3161   -4.4339 N.am      4 UNK        -0.4209 
     25 C          25.3616    0.6442   -4.0915 C.2       3 UNK         0.4942 
     26 O          25.8543    1.4254   -4.9045 O.2       3 UNK        -0.5208 
     27 CA         25.8035    0.7246   -2.6178 C.3       3 UNK         0.0250 
     28 CB         25.7937    2.1705   -2.0801 C.3       3 UNK        -0.1990 
     29 N          25.0924   -0.2004   -1.7274 N.am      3 UNK        -0.4232 
     30 C          23.8181   -0.1574   -1.3064 C.2       2 UNK         0.4993 
     31 O          23.0391    0.7573   -1.5753 O.2       2 UNK        -0.5286 
     32 CA         23.3138   -1.3686   -0.4909 C.3       2 UNK         0.0209 
     33 CB         21.8278   -1.6671   -0.7651 C.3       2 UNK        -0.1931 
     34 N          24.0929   -2.5767   -0.7794 N.am      2 UNK        -0.4546 
     35 C          25.2196   -2.9469   -0.1595 C.2       1 UNK         0.5154 
     36 O          25.6449   -2.3805    0.8482 O.2       1 UNK        -0.5181 
     37 C          28.2130   -1.7230   -6.7862 C.2       5 UNK         0.5014 
     38 O          28.9276   -1.6480   -7.7846 O.2       5 UNK        -0.5248 
     39 N          28.3481   -0.9193   -5.7189 N.am      6 UNK        -0.4434 
     40 CA         29.3525    0.1432   -5.6281 C.3       6 UNK         0.0363 
     41 CB         29.3543    0.7723   -4.2267 C.3       6 UNK        -0.1936 
     42 C          29.1832    1.2219   -6.7094 C.2       6 UNK         0.5081 
     43 O          30.1702    1.6147   -7.3320 O.2       6 UNK        -0.5248 
     44 N          27.9334    1.6467   -6.9438 N.am      7 UNK        -0.4718 
     45 CA         27.5566    2.5687   -8.0158 C.3       7 UNK         0.0273 
     46 CB         26.0959    3.0079   -7.8289 C.3       7 UNK        -0.1935 
     47 C          27.7703    1.9744   -9.4176 C.2       7 UNK         0.5018 
     48 O          28.2410    2.6897  -10.3019 O.2       7 UNK        -0.5186 
     49 N          27.4442    0.6844   -9.5928 N.am      8 UNK        -0.4240 
     50 CA         27.6528   -0.0580  -10.8401 C.3       8 UNK         0.0235 
     51 CB         26.9235   -1.4093  -10.7744 C.3       8 UNK        -0.2000 
     52 C          29.1418   -0.2547  -11.1745 C.2       8 UNK         0.4941 
     53 O          29.5327   -0.0577  -12.3257 O.2       8 UNK        -0.5273 
     54 N          29.9451   -0.6199  -10.1655 N.am      9 UNK        -0.4262 
     55 CA         31.4001   -0.7616  -10.2621 C.3       9 UNK         0.0264 
     56 CB         31.9163   -1.5180   -9.0261 C.3       9 UNK        -0.1955 
     57 C          32.1321    0.5846  -10.3995 C.2       9 UNK         0.5031 
     58 O          33.2247    0.6142  -10.9674 O.2       9 UNK        -0.5390 
     59 N          31.5299    1.6552   -9.8595 N.am      10 UNK        -0.4204 
     60 CA         32.0545    3.0199   -9.7401 C.3       10 UNK         0.0237 
     61 CB         32.2592    3.6665  -11.1267 C.3       10 UNK        -0.1985 
     62 C          33.3039    3.0882   -8.8398 C.2       10 UNK         0.4970 
     63 O          34.2145    3.8748   -9.1066 O.2       10 UNK        -0.4914 
     64 N          33.3230    2.2558   -7.7907 N.am      11 UNK        -0.4285 
     65 CA         34.4182    2.1527   -6.8144 C.3       11 UNK         0.1007 
     66 C          34.4041    3.2450   -5.7048 C.2       11 UNK         0.5703 
     67 N          33.3659    4.0657   -5.5907 N.am      11 UNK        -0.7361 
     68 O          35.3636    3.3620   -4.9459 O.2       11 UNK        -0.4986 
     69 C69        34.5330    0.7158   -6.2377 C.3       12 UNK        -0.0947 
     70 S70        33.0162    0.1422   -5.4056 S.3       12 UNK        -0.2240 
     71 C71        33.2814   -1.6598   -5.3869 C.3       12 UNK         0.0194 
     72 H72        23.6802   -5.7236   -3.7704 H         1 UNK         0.0906 
     73 H73        24.2616   -4.7040   -5.0841 H         1 UNK         0.0906 
     74 H74        25.2899   -5.9927   -4.4519 H         1 UNK         0.0906 
     75 H75        25.1921   -5.7470   -1.8011 H         1 UNK         0.3140 
     76 H76        25.9402   -4.8979    0.0048 H         1 UNK         0.1085 
     77 H77        27.9828   -3.7763    0.0859 H         1 UNK         0.0836 
     78 H78        28.0298   -4.6861   -1.3868 H         1 UNK         0.0836 
     79 H79        30.2224   -1.4442   -1.4157 H         1 UNK         0.0731 
     80 H80        30.1516   -3.1284   -0.9680 H         1 UNK         0.0731 
     81 H81        31.9393   -1.2604   -3.0376 H         1 UNK         0.1312 
     82 H82        31.9610   -3.7722   -6.5164 H         1 UNK         0.1406 
     83 H83        29.1404   -4.4855   -3.3766 H         1 UNK         0.1631 
     84 H84        30.7361   -6.0051   -6.2399 H         1 UNK         0.0717 
     85 H85        29.4182   -6.1295   -5.1067 H         1 UNK         0.0717 
     86 H86        26.5443   -4.7623   -6.2320 H         1 UNK         0.0934 
     87 H87        27.6595   -4.0141   -5.1321 H         1 UNK         0.0934 
     88 H88        26.7802   -2.9013   -7.8288 H         1 UNK         0.0739 
     89 H89        25.6442   -2.4684   -5.1983 H         1 UNK         0.3093 
     90 H90        23.7160    0.3775   -6.2358 H         1 UNK         0.0818 
     91 H91        21.9803   -1.0540   -5.2015 H         1 UNK         0.0819 
     92 H92        22.4386   -1.7137   -6.7628 H         1 UNK         0.0819 
     93 H93        23.0350   -2.4630   -5.2877 H         1 UNK         0.0819 
     94 H94        24.1975   -0.9640   -3.7174 H         1 UNK         0.3041 
     95 H95        26.8391    0.3856   -2.6045 H         1 UNK         0.0784 
     96 H96        26.4684    2.8044   -2.6568 H         1 UNK         0.0793 
     97 H97        24.8027    2.6209   -2.1391 H         1 UNK         0.0793 
     98 H98        26.1220    2.2105   -1.0416 H         1 UNK         0.0793 
     99 H99        25.6289   -1.0178   -1.4659 H         1 UNK         0.3024 
    100 H100       23.4195   -1.1079    0.5648 H         1 UNK         0.1171 
    101 H101       21.1982   -0.8205   -0.4878 H         1 UNK         0.0786 
    102 H102       21.6464   -1.8778   -1.8199 H         1 UNK         0.0786 
    103 H103       21.4826   -2.5246   -0.1871 H         1 UNK         0.0786 
    104 H104       23.8548   -3.0782   -1.6241 H         1 UNK         0.2977 
    105 H105       27.7288   -1.0406   -4.9325 H         1 UNK         0.3127 
    106 H106       30.3148   -0.3382   -5.7926 H         1 UNK         0.0770 
    107 H107       28.4605    1.3685   -4.0467 H         1 UNK         0.0814 
    108 H108       30.2117    1.4361   -4.1092 H         1 UNK         0.0814 
    109 H109       29.4227    0.0165   -3.4458 H         1 UNK         0.0814 
    110 H110       27.1835    1.3261   -6.3368 H         1 UNK         0.2983 
    111 H111       28.1926    3.4528   -7.9328 H         1 UNK         0.0947 
    112 H112       25.7923    3.7035   -8.6124 H         1 UNK         0.0806 
    113 H113       25.9546    3.5132   -6.8733 H         1 UNK         0.0806 
    114 H114       25.4120    2.1587   -7.8601 H         1 UNK         0.0806 
    115 H115       27.0162    0.1814   -8.8227 H         1 UNK         0.3000 
    116 H116       27.2071    0.5257  -11.6485 H         1 UNK         0.0850 
    117 H117       27.0099   -1.9439  -11.7212 H         1 UNK         0.0810 
    118 H118       25.8605   -1.2783  -10.5706 H         1 UNK         0.0810 
    119 H119       27.3362   -2.0543   -9.9991 H         1 UNK         0.0810 
    120 H120       29.5276   -0.8436   -9.2609 H         1 UNK         0.3040 
    121 H121       31.6270   -1.3557  -11.1497 H         1 UNK         0.0766 
    122 H122       31.4660   -2.5080   -8.9503 H         1 UNK         0.0812 
    123 H123       31.6906   -0.9808   -8.1036 H         1 UNK         0.0812 
    124 H124       32.9977   -1.6535   -9.0703 H         1 UNK         0.0812 
    125 H125       30.6745    1.4890   -9.3395 H         1 UNK         0.3205 
    126 H126       31.2809    3.5908   -9.2243 H         1 UNK         0.0754 
    127 H127       32.5075    4.7242  -11.0314 H         1 UNK         0.0769 
    128 H128       31.3537    3.5998  -11.7300 H         1 UNK         0.0769 
    129 H129       33.0689    3.1919  -11.6817 H         1 UNK         0.0769 
    130 H130       32.5079    1.6854   -7.6049 H         1 UNK         0.2981 
    131 H131       35.3474    2.3288   -7.3596 H         1 UNK         0.0541 
    132 H132       32.5720    3.9705   -6.2028 H         1 UNK         0.3459 
    133 H133       33.3721    4.7735   -4.8737 H         1 UNK         0.3459 
    134 H134       35.3676    0.6406   -5.5384 H         1 UNK         0.0612 
    135 H135       34.7619    0.0242   -7.0500 H         1 UNK         0.0612 
    136 H136       34.1579   -1.8839   -4.7778 H         1 UNK         0.0624 
    137 H137       33.5116   -1.9905   -6.4006 H         1 UNK         0.0624 
@<TRIPOS>BOND
     1    1    2 1    
     2    1   72 1    
     3    1   73 1    
     4    1   74 1    
     5    2    3 2    
     6    2    4 am   BACKBONE|DICT|INTERRES
     7    4    5 1    
     8    4   75 1    
     9    5    6 1    
    10    5   35 1    
    11    5   76 1    
    12    6    7 1    
    13    6   77 1    
    14    6   78 1    
    15    7    8 1    
    16    8    9 1    
    17    8   79 1    
    18    8   80 1    
    19    9   10 ar   
    20    9   14 ar   
    21   10   11 ar   
    22   10   81 1    
    23   11   12 ar   
    24   11   71 1    
    25   12   13 ar   
    26   12   82 1    
    27   13   14 ar   
    28   13   15 1    
    29   14   83 1    
    30   15   16 1    
    31   15   84 1    
    32   15   85 1    
    33   16   17 1    
    34   17   18 1    
    35   17   86 1    
    36   17   87 1    
    37   18   19 1    
    38   18   37 1    
    39   18   88 1    
    40   19   20 am   BACKBONE|DICT|INTERRES
    41   19   89 1    
    42   20   21 2    
    43   20   22 1    
    44   22   23 1    
    45   22   24 1    
    46   22   90 1    
    47   23   91 1    
    48   23   92 1    
    49   23   93 1    
    50   24   25 am   BACKBONE|DICT|INTERRES
    51   24   94 1    
    52   25   26 2    
    53   25   27 1    
    54   27   28 1    
    55   27   29 1    
    56   27   95 1    
    57   28   96 1    
    58   28   97 1    
    59   28   98 1    
    60   29   30 am   BACKBONE|DICT|INTERRES
    61   29   99 1    
    62   30   31 2    
    63   30   32 1    
    64   32   33 1    
    65   32   34 1    
    66   32  100 1    
    67   33  101 1    
    68   33  102 1    
    69   33  103 1    
    70   34   35 am   BACKBONE|DICT|INTERRES
    71   34  104 1    
    72   35   36 2    
    73   37   38 2    
    74   37   39 am   BACKBONE|DICT|INTERRES
    75   39   40 1    
    76   39  105 1    
    77   40   41 1    
    78   40   42 1    
    79   40  106 1    
    80   41  107 1    
    81   41  108 1    
    82   41  109 1    
    83   42   43 2    
    84   42   44 am   BACKBONE|DICT|INTERRES
    85   44   45 1    
    86   44  110 1    
    87   45   46 1    
    88   45   47 1    
    89   45  111 1    
    90   46  112 1    
    91   46  113 1    
    92   46  114 1    
    93   47   48 2    
    94   47   49 am   BACKBONE|DICT|INTERRES
    95   49   50 1    
    96   49  115 1    
    97   50   51 1    
    98   50   52 1    
    99   50  116 1    
   100   51  117 1    
   101   51  118 1    
   102   51  119 1    
   103   52   53 2    
   104   52   54 am   BACKBONE|DICT|INTERRES
   105   54   55 1    
   106   54  120 1    
   107   55   56 1    
   108   55   57 1    
   109   55  121 1    
   110   56  122 1    
   111   56  123 1    
   112   56  124 1    
   113   57   58 2    
   114   57   59 am   BACKBONE|DICT|INTERRES
   115   59   60 1    
   116   59  125 1    
   117   60   61 1    
   118   60   62 1    
   119   60  126 1    
   120   61  127 1    
   121   61  128 1    
   122   61  129 1    
   123   62   63 2    
   124   62   64 am   BACKBONE|DICT|INTERRES
   125   64   65 1    
   126   64  130 1    
   127   65   66 1    
   128   65   69 1    
   129   65  131 1    
   130   66   67 am   BACKBONE|DICT|INTERRES
   131   66   68 2    
   132   67  132 1    
   133   67  133 1    
   134   69   70 1    
   135   69  134 1    
   136   69  135 1    
   137   70   71 1    
   138   71  136 1    
   139   71  137 1    
@<TRIPOS>SUBSTRUCTURE
     1 UNK         1 GROUP             0       ****    0 ROOT    
