@<TRIPOS>MOLECULE
3R137
137   139    1
SMALL
USER_CHARGES


@<TRIPOS>ATOM
      1 CA         24.3876   -6.3810   -4.2981 C.3       0 UNK        -0.2020 
      2 C          24.8108   -5.5198   -3.1182 C.2       0 UNK         0.4855 
      3 O          23.9567   -4.9265   -2.4583 O.2       0 UNK        -0.5197 
      4 N          26.1240   -5.4438   -2.8576 N.am      1 UNK        -0.4892 
      5 CA         26.7643   -4.6473   -1.8023 C.3       1 UNK         0.0835 
      6 C6         28.3003   -4.8473   -1.8402 C.3       12 UNK        -0.0855 
      7 S7         29.1873   -4.0396   -0.4623 S.3       12 UNK        -0.2931 
      8 C8         30.8535   -3.8231   -1.1723 C.3       12 UNK         0.0378 
      9 C9         30.8847   -2.7796   -2.2823 C.ar      12 UNK        -0.0802 
     10 C10        30.9475   -3.1759   -3.6234 C.ar      12 UNK        -0.0944 
     11 C11        30.9786   -2.2231   -4.6455 C.ar      12 UNK        -0.0787 
     12 C12        30.9483   -0.8668   -4.3166 C.ar      12 UNK        -0.0862 
     13 C13        30.8944   -0.4541   -2.9828 C.ar      12 UNK        -0.0733 
     14 C14        30.8700   -1.4163   -1.9677 C.ar      12 UNK        -0.0832 
     15 C15        30.8763    1.0353   -2.6563 C.3       12 UNK         0.0240 
     16 S16        29.3924    1.5829   -1.7424 S.3       12 UNK        -0.2522 
     17 C17        28.0122    0.6583   -2.4998 C.3       12 UNK        -0.0967 
     18 CA         27.8412    0.8240   -4.0321 C.3       5 UNK         0.0660 
     19 N          27.1849   -0.3589   -4.6065 N.am      5 UNK        -0.4015 
     20 C          26.8947   -0.5814   -5.8965 C.2       4 UNK         0.4946 
     21 O          27.1091    0.2255   -6.7978 O.2       4 UNK        -0.5353 
     22 CA         26.1937   -1.9048   -6.2296 C.3       4 UNK         0.0277 
     23 CB         27.1833   -3.0825   -6.1988 C.3       4 UNK        -0.1981 
     24 N          25.0881   -2.1414   -5.3013 N.am      4 UNK        -0.4209 
     25 C          23.8776   -1.5748   -5.4196 C.2       3 UNK         0.4942 
     26 O          23.5272   -0.9075   -6.3930 O.2       3 UNK        -0.5208 
     27 CA         22.8939   -1.7549   -4.2495 C.3       3 UNK         0.0250 
     28 CB         21.9556   -2.9449   -4.5043 C.3       3 UNK        -0.1990 
     29 N          23.5614   -1.9189   -2.9551 N.am      3 UNK        -0.4232 
     30 C          24.2350   -0.9409   -2.3292 C.2       2 UNK         0.4993 
     31 O          24.3402    0.2055   -2.7670 O.2       2 UNK        -0.5286 
     32 CA         24.9628   -1.3156   -1.0244 C.3       2 UNK         0.0209 
     33 CB         24.0252   -1.1419    0.1806 C.3       2 UNK        -0.1931 
     34 N          25.5208   -2.6728   -1.0177 N.am      2 UNK        -0.4546 
     35 C          26.3707   -3.1620   -1.9321 C.2       1 UNK         0.5154 
     36 O          26.7863   -2.5115   -2.8919 O.2       1 UNK        -0.5181 
     37 C          27.1642    2.1637   -4.3898 C.2       5 UNK         0.5014 
     38 O          27.8585    3.1725   -4.5203 O.2       5 UNK        -0.5248 
     39 N          25.8387    2.1437   -4.5919 N.am      6 UNK        -0.4434 
     40 CA         25.0407    3.2631   -5.0991 C.3       6 UNK         0.0363 
     41 CB         23.5614    2.8464   -5.1252 C.3       6 UNK        -0.1936 
     42 C          25.4762    3.7809   -6.4871 C.2       6 UNK         0.5081 
     43 O          25.2968    4.9687   -6.7589 O.2       6 UNK        -0.5248 
     44 N          26.0355    2.9016   -7.3304 N.am      7 UNK        -0.4718 
     45 CA         26.5807    3.2342   -8.6512 C.3       7 UNK         0.0273 
     46 CB         25.9402    2.3102   -9.7002 C.3       7 UNK        -0.1935 
     47 C          28.1118    3.0950   -8.6990 C.2       7 UNK         0.5018 
     48 O          28.7554    3.8038   -9.4745 O.2       7 UNK        -0.5186 
     49 N          28.6615    2.1664   -7.9037 N.am      8 UNK        -0.4240 
     50 CA         30.0500    1.7026   -7.8224 C.3       8 UNK         0.0235 
     51 CB         31.0355    2.8315   -7.4655 C.3       8 UNK        -0.2000 
     52 C          30.4862    0.9189   -9.0684 C.2       8 UNK         0.4941 
     53 O          30.8709   -0.2437   -8.9378 O.2       8 UNK        -0.5273 
     54 N          30.3959    1.5521  -10.2469 N.am      9 UNK        -0.4262 
     55 CA         30.7142    1.0133  -11.5735 C.3       9 UNK         0.0264 
     56 CB         29.6078    0.0317  -12.0234 C.3       9 UNK        -0.1955 
     57 C          32.1378    0.4244  -11.6177 C.2       9 UNK         0.5031 
     58 O          33.1031    1.1852  -11.5244 O.2       9 UNK        -0.5390 
     59 N          32.2467   -0.9087  -11.7054 N.am      10 UNK        -0.4204 
     60 CA         33.5008   -1.6670  -11.6684 C.3       10 UNK         0.0237 
     61 CB         33.1988   -3.1524  -11.9261 C.3       10 UNK        -0.1985 
     62 C          34.3042   -1.5015  -10.3635 C.2       10 UNK         0.4970 
     63 O          35.5253   -1.6603  -10.3974 O.2       10 UNK        -0.4914 
     64 N          33.6270   -1.1745   -9.2543 N.am      11 UNK        -0.4285 
     65 CA         34.2574   -0.8313   -7.9708 C.3       11 UNK         0.1007 
     66 C          34.8157    0.6223   -7.9155 C.2       11 UNK         0.5703 
     67 N          34.5900    1.4752   -8.9099 N.am      11 UNK        -0.7361 
     68 O          35.4814    0.9835   -6.9480 O.2       11 UNK        -0.4986 
     69 C69        33.3187   -1.1111   -6.7681 C.3       12 UNK        -0.0947 
     70 S70        32.7585   -2.8470   -6.6788 S.3       12 UNK        -0.2240 
     71 C71        31.0410   -2.6545   -6.1043 C.3       12 UNK         0.0194 
     72 H72        23.5661   -7.0361   -4.0095 H         1 UNK         0.0906 
     73 H73        24.0499   -5.7522   -5.1212 H         1 UNK         0.0906 
     74 H74        25.2043   -7.0053   -4.6602 H         1 UNK         0.0906 
     75 H75        26.7618   -5.9492   -3.4560 H         1 UNK         0.3140 
     76 H76        26.3969   -5.0229   -0.8451 H         1 UNK         0.1085 
     77 H77        28.6941   -4.4897   -2.7920 H         1 UNK         0.0836 
     78 H78        28.5369   -5.9118   -1.7991 H         1 UNK         0.0836 
     79 H79        31.2184   -4.7852   -1.5355 H         1 UNK         0.0731 
     80 H80        31.5370   -3.5216   -0.3772 H         1 UNK         0.0731 
     81 H81        30.9720   -4.2276   -3.8740 H         1 UNK         0.1312 
     82 H82        30.9711   -0.1283   -5.1039 H         1 UNK         0.1406 
     83 H83        30.8250   -1.1032   -0.9333 H         1 UNK         0.1631 
     84 H84        30.9550    1.6314   -3.5670 H         1 UNK         0.0717 
     85 H85        31.7593    1.2775   -2.0636 H         1 UNK         0.0717 
     86 H86        28.1758   -0.3901   -2.2477 H         1 UNK         0.0934 
     87 H87        27.0939    0.9385   -1.9818 H         1 UNK         0.0934 
     88 H88        28.8228    0.8586   -4.5010 H         1 UNK         0.0739 
     89 H89        26.9936   -1.1149   -3.9493 H         1 UNK         0.3093 
     90 H90        25.7964   -1.8302   -7.2445 H         1 UNK         0.0818 
     91 H91        26.6848   -4.0245   -6.4269 H         1 UNK         0.0819 
     92 H92        27.9679   -2.9434   -6.9436 H         1 UNK         0.0819 
     93 H93        27.6745   -3.1898   -5.2315 H         1 UNK         0.0819 
     94 H94        25.3196   -2.6176   -4.4386 H         1 UNK         0.3041 
     95 H95        22.2837   -0.8503   -4.1969 H         1 UNK         0.0784 
     96 H96        21.4066   -2.8144   -5.4379 H         1 UNK         0.0793 
     97 H97        22.5025   -3.8844   -4.5780 H         1 UNK         0.0793 
     98 H98        21.2189   -3.0476   -3.7074 H         1 UNK         0.0793 
     99 H99        23.5629   -2.8511   -2.5525 H         1 UNK         0.3024 
    100 H100       25.7968   -0.6236   -0.9048 H         1 UNK         0.1171 
    101 H101       24.5529   -1.3013    1.1212 H         1 UNK         0.0786 
    102 H102       23.6120   -0.1325    0.2110 H         1 UNK         0.0786 
    103 H103       23.1855   -1.8371    0.1433 H         1 UNK         0.0786 
    104 H104       25.1921   -3.2889   -0.2879 H         1 UNK         0.2977 
    105 H105       25.3354    1.2921   -4.3694 H         1 UNK         0.3127 
    106 H106       25.1534    4.0889   -4.3937 H         1 UNK         0.0770 
    107 H107       23.2106    2.5642   -4.1321 H         1 UNK         0.0814 
    108 H108       23.3940    1.9995   -5.7924 H         1 UNK         0.0814 
    109 H109       22.9298    3.6658   -5.4713 H         1 UNK         0.0814 
    110 H110       26.1618    1.9435   -7.0185 H         1 UNK         0.2983 
    111 H111       26.3426    4.2667   -8.9163 H         1 UNK         0.0947 
    112 H112       24.8585    2.4404   -9.7332 H         1 UNK         0.0806 
    113 H113       26.1447    1.2590   -9.4914 H         1 UNK         0.0806 
    114 H114       26.3234    2.5262  -10.6987 H         1 UNK         0.0806 
    115 H115       28.0124    1.5661   -7.3952 H         1 UNK         0.3000 
    116 H116       30.0607    0.9926   -6.9948 H         1 UNK         0.0850 
    117 H117       31.0976    3.5898   -8.2461 H         1 UNK         0.0810 
    118 H118       32.0414    2.4350   -7.3208 H         1 UNK         0.0810 
    119 H119       30.7453    3.3277   -6.5392 H         1 UNK         0.0810 
    120 H120       30.0460    2.5060  -10.2224 H         1 UNK         0.3040 
    121 H121       30.7105    1.8576  -12.2644 H         1 UNK         0.0766 
    122 H122       29.8105   -0.3656  -13.0190 H         1 UNK         0.0812 
    123 H123       28.6425    0.5359  -12.0749 H         1 UNK         0.0812 
    124 H124       29.4954   -0.8112  -11.3402 H         1 UNK         0.0812 
    125 H125       31.3935   -1.4477  -11.7361 H         1 UNK         0.3205 
    126 H126       34.1288   -1.2984  -12.4821 H         1 UNK         0.0754 
    127 H127       32.7118   -3.2983  -12.8906 H         1 UNK         0.0769 
    128 H128       34.1171   -3.7414  -11.9372 H         1 UNK         0.0769 
    129 H129       32.5522   -3.5721  -11.1541 H         1 UNK         0.0769 
    130 H130       32.6220   -1.0318   -9.2991 H         1 UNK         0.2981 
    131 H131       35.1268   -1.4796   -7.8466 H         1 UNK         0.0541 
    132 H132       34.9719    2.4051   -8.8487 H         1 UNK         0.3459 
    133 H133       34.0648    1.2040   -9.7335 H         1 UNK         0.3459 
    134 H134       33.8188   -0.8834   -5.8250 H         1 UNK         0.0612 
    135 H135       32.4534   -0.4511   -6.8214 H         1 UNK         0.0612 
    136 H136       30.5224   -3.6061   -6.2290 H         1 UNK         0.0624 
    137 H137       30.5167   -1.9388   -6.7396 H         1 UNK         0.0624 
@<TRIPOS>BOND
     1    1    2 1    
     2    1   72 1    
     3    1   73 1    
     4    1   74 1    
     5    2    3 2    
     6    2    4 am   BACKBONE|DICT|INTERRES
     7    4    5 1    
     8    4   75 1    
     9    5    6 1    
    10    5   35 1    
    11    5   76 1    
    12    6    7 1    
    13    6   77 1    
    14    6   78 1    
    15    7    8 1    
    16    8    9 1    
    17    8   79 1    
    18    8   80 1    
    19    9   10 ar   
    20    9   14 ar   
    21   10   11 ar   
    22   10   81 1    
    23   11   12 ar   
    24   11   71 1    
    25   12   13 ar   
    26   12   82 1    
    27   13   14 ar   
    28   13   15 1    
    29   14   83 1    
    30   15   16 1    
    31   15   84 1    
    32   15   85 1    
    33   16   17 1    
    34   17   18 1    
    35   17   86 1    
    36   17   87 1    
    37   18   19 1    
    38   18   37 1    
    39   18   88 1    
    40   19   20 am   BACKBONE|DICT|INTERRES
    41   19   89 1    
    42   20   21 2    
    43   20   22 1    
    44   22   23 1    
    45   22   24 1    
    46   22   90 1    
    47   23   91 1    
    48   23   92 1    
    49   23   93 1    
    50   24   25 am   BACKBONE|DICT|INTERRES
    51   24   94 1    
    52   25   26 2    
    53   25   27 1    
    54   27   28 1    
    55   27   29 1    
    56   27   95 1    
    57   28   96 1    
    58   28   97 1    
    59   28   98 1    
    60   29   30 am   BACKBONE|DICT|INTERRES
    61   29   99 1    
    62   30   31 2    
    63   30   32 1    
    64   32   33 1    
    65   32   34 1    
    66   32  100 1    
    67   33  101 1    
    68   33  102 1    
    69   33  103 1    
    70   34   35 am   BACKBONE|DICT|INTERRES
    71   34  104 1    
    72   35   36 2    
    73   37   38 2    
    74   37   39 am   BACKBONE|DICT|INTERRES
    75   39   40 1    
    76   39  105 1    
    77   40   41 1    
    78   40   42 1    
    79   40  106 1    
    80   41  107 1    
    81   41  108 1    
    82   41  109 1    
    83   42   43 2    
    84   42   44 am   BACKBONE|DICT|INTERRES
    85   44   45 1    
    86   44  110 1    
    87   45   46 1    
    88   45   47 1    
    89   45  111 1    
    90   46  112 1    
    91   46  113 1    
    92   46  114 1    
    93   47   48 2    
    94   47   49 am   BACKBONE|DICT|INTERRES
    95   49   50 1    
    96   49  115 1    
    97   50   51 1    
    98   50   52 1    
    99   50  116 1    
   100   51  117 1    
   101   51  118 1    
   102   51  119 1    
   103   52   53 2    
   104   52   54 am   BACKBONE|DICT|INTERRES
   105   54   55 1    
   106   54  120 1    
   107   55   56 1    
   108   55   57 1    
   109   55  121 1    
   110   56  122 1    
   111   56  123 1    
   112   56  124 1    
   113   57   58 2    
   114   57   59 am   BACKBONE|DICT|INTERRES
   115   59   60 1    
   116   59  125 1    
   117   60   61 1    
   118   60   62 1    
   119   60  126 1    
   120   61  127 1    
   121   61  128 1    
   122   61  129 1    
   123   62   63 2    
   124   62   64 am   BACKBONE|DICT|INTERRES
   125   64   65 1    
   126   64  130 1    
   127   65   66 1    
   128   65   69 1    
   129   65  131 1    
   130   66   67 am   BACKBONE|DICT|INTERRES
   131   66   68 2    
   132   67  132 1    
   133   67  133 1    
   134   69   70 1    
   135   69  134 1    
   136   69  135 1    
   137   70   71 1    
   138   71  136 1    
   139   71  137 1    
@<TRIPOS>SUBSTRUCTURE
     1 UNK         1 GROUP             0       ****    0 ROOT    
