@<TRIPOS>MOLECULE
3R137
137   139    1
SMALL
USER_CHARGES


@<TRIPOS>ATOM
      1 CA         28.3831    0.1235    1.8906 C.3       0 UNK        -0.2020 
      2 C          28.8785   -1.2800    2.2307 C.2       0 UNK         0.4855 
      3 O          29.1238   -1.5659    3.4013 O.2       0 UNK        -0.5197 
      4 N          29.0572   -2.1820    1.2564 N.am      1 UNK        -0.4892 
      5 CA         28.7335   -2.0303   -0.1671 C.3       1 UNK         0.0835 
      6 C6         29.5533   -3.0255   -1.0287 C.3       12 UNK        -0.0855 
      7 S7         29.2006   -4.7925   -0.6997 S.3       12 UNK        -0.2931 
      8 C8         30.7112   -5.6044   -1.3228 C.3       12 UNK         0.0378 
      9 C9         31.1159   -5.1274   -2.7134 C.ar      12 UNK        -0.0802 
     10 C10        32.4152   -4.6674   -2.9395 C.ar      12 UNK        -0.0944 
     11 C11        32.7955   -4.2006   -4.1999 C.ar      12 UNK        -0.0787 
     12 C12        31.8594   -4.1828   -5.2406 C.ar      12 UNK        -0.0862 
     13 C13        30.5550   -4.6436   -5.0303 C.ar      12 UNK        -0.0733 
     14 C14        30.1991   -5.1355   -3.7695 C.ar      12 UNK        -0.0832 
     15 C15        29.5424   -4.6454   -6.1715 C.3       12 UNK         0.0240 
     16 S16        27.9523   -3.8765   -5.7118 S.3       12 UNK        -0.2522 
     17 C17        28.3247   -2.0933   -5.8182 C.3       12 UNK        -0.0967 
     18 CA         27.4952   -1.4060   -6.9323 C.3       5 UNK         0.0660 
     19 N          26.0500   -1.5617   -6.7389 N.am      5 UNK        -0.4015 
     20 C          25.1191   -1.2830   -7.6623 C.2       4 UNK         0.4946 
     21 O          25.3747   -0.8834   -8.7976 O.2       4 UNK        -0.5353 
     22 CA         23.6512   -1.4374   -7.2313 C.3       4 UNK         0.0277 
     23 CB         23.2155   -2.9097   -7.3051 C.3       4 UNK        -0.1981 
     24 N          23.4007   -0.9138   -5.8860 N.am      4 UNK        -0.4209 
     25 C          23.5244    0.3765   -5.5412 C.2       3 UNK         0.4942 
     26 O          23.8087    1.2717   -6.3334 O.2       3 UNK        -0.5208 
     27 CA         23.3473    0.7262   -4.0554 C.3       3 UNK         0.0250 
     28 CB         21.8732    1.0308   -3.7455 C.3       3 UNK        -0.1990 
     29 N          23.8379   -0.3139   -3.1468 N.am      3 UNK        -0.4232 
     30 C          25.1082   -0.7338   -3.0763 C.2       2 UNK         0.4993 
     31 O          26.0212   -0.3142   -3.7954 O.2       2 UNK        -0.5286 
     32 CA         25.3885   -1.8502   -2.0695 C.3       2 UNK         0.0209 
     33 CB         25.1345   -3.2303   -2.7036 C.3       2 UNK        -0.1931 
     34 N          26.7766   -1.7620   -1.6262 N.am      2 UNK        -0.4546 
     35 C          27.2142   -2.1579   -0.4258 C.2       1 UNK         0.5154 
     36 O          26.4718   -2.6186    0.4469 O.2       1 UNK        -0.5181 
     37 C          27.8691    0.0803   -7.0763 C.2       5 UNK         0.5014 
     38 O          28.6520    0.4212   -7.9639 O.2       5 UNK        -0.5248 
     39 N          27.2652    0.9396   -6.2407 N.am      6 UNK        -0.4434 
     40 CA         27.4007    2.3958   -6.3133 C.3       6 UNK         0.0363 
     41 CB         26.7134    3.0456   -5.1022 C.3       6 UNK        -0.1936 
     42 C          26.8649    2.9787   -7.6335 C.2       6 UNK         0.5081 
     43 O          27.5599    3.7765   -8.2613 O.2       6 UNK        -0.5248 
     44 N          25.6679    2.5450   -8.0565 N.am      7 UNK        -0.4718 
     45 CA         25.0318    2.9370   -9.3201 C.3       7 UNK         0.0273 
     46 CB         23.5933    2.3986   -9.3666 C.3       7 UNK        -0.1935 
     47 C          25.8162    2.4847  -10.5631 C.2       7 UNK         0.5018 
     48 O          25.8915    3.2360  -11.5358 O.2       7 UNK        -0.5186 
     49 N          26.4149    1.2874  -10.4977 N.am      8 UNK        -0.4240 
     50 CA         27.3224    0.7500  -11.5157 C.3       8 UNK         0.0235 
     51 CB         27.4722   -0.7656  -11.2991 C.3       8 UNK        -0.2000 
     52 C          28.7092    1.4235  -11.5311 C.2       8 UNK         0.4941 
     53 O          29.4712    1.1794  -12.4677 O.2       8 UNK        -0.5273 
     54 N          29.0222    2.2259  -10.5006 N.am      9 UNK        -0.4262 
     55 CA         30.3128    2.8661  -10.2224 C.3       9 UNK         0.0264 
     56 CB         30.6566    3.9201  -11.2967 C.3       9 UNK        -0.1955 
     57 C          31.4414    1.8424   -9.9879 C.2       9 UNK         0.5031 
     58 O          32.5828    2.0769  -10.3919 O.2       9 UNK        -0.5390 
     59 N          31.0986    0.7224   -9.3399 N.am      10 UNK        -0.4204 
     60 CA         32.0262   -0.3313   -8.9416 C.3       10 UNK         0.0237 
     61 CB         31.2659   -1.6692   -8.9034 C.3       10 UNK        -0.1985 
     62 C          32.6364   -0.0148   -7.5684 C.2       10 UNK         0.4970 
     63 O          32.0726    0.7730   -6.8039 O.2       10 UNK        -0.4914 
     64 N          33.7557   -0.6828   -7.2690 N.am      11 UNK        -0.4285 
     65 CA         34.5054   -0.5775   -6.0090 C.3       11 UNK         0.1007 
     66 C          35.2390    0.7851   -5.8213 C.2       11 UNK         0.5703 
     67 N          35.7645    1.0577   -4.6343 N.am      11 UNK        -0.7361 
     68 O          35.3825    1.5783   -6.7504 O.2       11 UNK        -0.4986 
     69 C69        33.6477   -1.0162   -4.7799 C.3       12 UNK        -0.0947 
     70 S70        34.5619   -2.1207   -3.6590 S.3       12 UNK        -0.2240 
     71 C71        34.2272   -3.7367   -4.4297 C.3       12 UNK         0.0194 
     72 H72        28.3269    0.7355    2.7908 H         1 UNK         0.0906 
     73 H73        29.0612    0.6211    1.1981 H         1 UNK         0.0906 
     74 H74        27.3863    0.0927    1.4523 H         1 UNK         0.0906 
     75 H75        29.3486   -3.1143    1.5145 H         1 UNK         0.3140 
     76 H76        29.0256   -1.0256   -0.4782 H         1 UNK         0.1085 
     77 H77        29.3865   -2.8347   -2.0907 H         1 UNK         0.0836 
     78 H78        30.6180   -2.8475   -0.8672 H         1 UNK         0.0836 
     79 H79        31.5152   -5.4303   -0.6059 H         1 UNK         0.0731 
     80 H80        30.5498   -6.6828   -1.3492 H         1 UNK         0.0731 
     81 H81        33.1366   -4.6671   -2.1335 H         1 UNK         0.1312 
     82 H82        32.1507   -3.8181   -6.2162 H         1 UNK         0.1406 
     83 H83        29.1948   -5.5001   -3.6003 H         1 UNK         0.1631 
     84 H84        29.9407   -4.1465   -7.0564 H         1 UNK         0.0717 
     85 H85        29.3548   -5.6799   -6.4616 H         1 UNK         0.0717 
     86 H86        28.1177   -1.6447   -4.8454 H         1 UNK         0.0934 
     87 H87        29.3940   -1.9548   -5.9890 H         1 UNK         0.0934 
     88 H88        27.7481   -1.8886   -7.8792 H         1 UNK         0.0739 
     89 H89        25.7550   -1.8559   -5.8202 H         1 UNK         0.3093 
     90 H90        23.0398   -0.8646   -7.9321 H         1 UNK         0.0818 
     91 H91        22.1537   -3.0207   -7.0845 H         1 UNK         0.0819 
     92 H92        23.3802   -3.3137   -8.3051 H         1 UNK         0.0819 
     93 H93        23.7718   -3.5354   -6.6059 H         1 UNK         0.0819 
     94 H94        23.1473   -1.5798   -5.1713 H         1 UNK         0.3041 
     95 H95        23.9286    1.6299   -3.8616 H         1 UNK         0.0784 
     96 H96        21.4931    1.8186   -4.3978 H         1 UNK         0.0793 
     97 H97        21.2386    0.1552   -3.8886 H         1 UNK         0.0793 
     98 H98        21.7458    1.3749   -2.7189 H         1 UNK         0.0793 
     99 H99        23.1542   -0.7243   -2.5263 H         1 UNK         0.3024 
    100 H100       24.7232   -1.7138   -1.2132 H         1 UNK         0.1171 
    101 H101       25.3091   -4.0329   -1.9867 H         1 UNK         0.0786 
    102 H102       24.1041   -3.3252   -3.0480 H         1 UNK         0.0786 
    103 H103       25.7857   -3.4053   -3.5607 H         1 UNK         0.0786 
    104 H104       27.4045   -1.3333   -2.2942 H         1 UNK         0.2977 
    105 H105       26.6641    0.5681   -5.5109 H         1 UNK         0.3127 
    106 H106       28.4671    2.6259   -6.2598 H         1 UNK         0.0770 
    107 H107       25.6380    2.8700   -5.1039 H         1 UNK         0.0814 
    108 H108       26.8658    4.1256   -5.1032 H         1 UNK         0.0814 
    109 H109       27.1140    2.6611   -4.1639 H         1 UNK         0.0814 
    110 H110       25.1272    1.9290   -7.4516 H         1 UNK         0.2983 
    111 H111       24.9881    4.0281   -9.3418 H         1 UNK         0.0947 
    112 H112       23.0964    2.6863  -10.2940 H         1 UNK         0.0806 
    113 H113       22.9965    2.7925   -8.5438 H         1 UNK         0.0806 
    114 H114       23.5692    1.3099   -9.3054 H         1 UNK         0.0806 
    115 H115       26.2345    0.6954   -9.6913 H         1 UNK         0.3000 
    116 H116       26.8717    0.9132  -12.4969 H         1 UNK         0.0850 
    117 H117       26.5076   -1.2710  -11.3498 H         1 UNK         0.0810 
    118 H118       27.9170   -0.9899  -10.3289 H         1 UNK         0.0810 
    119 H119       28.1114   -1.2114  -12.0623 H         1 UNK         0.0810 
    120 H120       28.3220    2.3571   -9.7798 H         1 UNK         0.3040 
    121 H121       30.1868    3.3928   -9.2754 H         1 UNK         0.0766 
    122 H122       29.8406    4.6304  -11.4295 H         1 UNK         0.0812 
    123 H123       30.8647    3.4617  -12.2638 H         1 UNK         0.0812 
    124 H124       31.5405    4.4922  -11.0126 H         1 UNK         0.0812 
    125 H125       30.1574    0.6539   -8.9524 H         1 UNK         0.3205 
    126 H126       32.8298   -0.4049   -9.6776 H         1 UNK         0.0754 
    127 H127       30.4747   -1.6621   -8.1540 H         1 UNK         0.0769 
    128 H128       31.9339   -2.4974   -8.6646 H         1 UNK         0.0769 
    129 H129       30.8080   -1.8911   -9.8677 H         1 UNK         0.0769 
    130 H130       34.1645   -1.2858   -7.9679 H         1 UNK         0.2981 
    131 H131       35.3135   -1.2972   -6.1432 H         1 UNK         0.0541 
    132 H132       36.2589    1.9258   -4.5003 H         1 UNK         0.3459 
    133 H133       35.6727    0.4040   -3.8717 H         1 UNK         0.3459 
    134 H134       32.7428   -1.5348   -5.0961 H         1 UNK         0.0612 
    135 H135       33.2867   -0.1553   -4.2144 H         1 UNK         0.0612 
    136 H136       34.9136   -4.4727   -4.0087 H         1 UNK         0.0624 
    137 H137       34.4534   -3.6853   -5.4959 H         1 UNK         0.0624 
@<TRIPOS>BOND
     1    1    2 1    
     2    1   72 1    
     3    1   73 1    
     4    1   74 1    
     5    2    3 2    
     6    2    4 am   BACKBONE|DICT|INTERRES
     7    4    5 1    
     8    4   75 1    
     9    5    6 1    
    10    5   35 1    
    11    5   76 1    
    12    6    7 1    
    13    6   77 1    
    14    6   78 1    
    15    7    8 1    
    16    8    9 1    
    17    8   79 1    
    18    8   80 1    
    19    9   10 ar   
    20    9   14 ar   
    21   10   11 ar   
    22   10   81 1    
    23   11   12 ar   
    24   11   71 1    
    25   12   13 ar   
    26   12   82 1    
    27   13   14 ar   
    28   13   15 1    
    29   14   83 1    
    30   15   16 1    
    31   15   84 1    
    32   15   85 1    
    33   16   17 1    
    34   17   18 1    
    35   17   86 1    
    36   17   87 1    
    37   18   19 1    
    38   18   37 1    
    39   18   88 1    
    40   19   20 am   BACKBONE|DICT|INTERRES
    41   19   89 1    
    42   20   21 2    
    43   20   22 1    
    44   22   23 1    
    45   22   24 1    
    46   22   90 1    
    47   23   91 1    
    48   23   92 1    
    49   23   93 1    
    50   24   25 am   BACKBONE|DICT|INTERRES
    51   24   94 1    
    52   25   26 2    
    53   25   27 1    
    54   27   28 1    
    55   27   29 1    
    56   27   95 1    
    57   28   96 1    
    58   28   97 1    
    59   28   98 1    
    60   29   30 am   BACKBONE|DICT|INTERRES
    61   29   99 1    
    62   30   31 2    
    63   30   32 1    
    64   32   33 1    
    65   32   34 1    
    66   32  100 1    
    67   33  101 1    
    68   33  102 1    
    69   33  103 1    
    70   34   35 am   BACKBONE|DICT|INTERRES
    71   34  104 1    
    72   35   36 2    
    73   37   38 2    
    74   37   39 am   BACKBONE|DICT|INTERRES
    75   39   40 1    
    76   39  105 1    
    77   40   41 1    
    78   40   42 1    
    79   40  106 1    
    80   41  107 1    
    81   41  108 1    
    82   41  109 1    
    83   42   43 2    
    84   42   44 am   BACKBONE|DICT|INTERRES
    85   44   45 1    
    86   44  110 1    
    87   45   46 1    
    88   45   47 1    
    89   45  111 1    
    90   46  112 1    
    91   46  113 1    
    92   46  114 1    
    93   47   48 2    
    94   47   49 am   BACKBONE|DICT|INTERRES
    95   49   50 1    
    96   49  115 1    
    97   50   51 1    
    98   50   52 1    
    99   50  116 1    
   100   51  117 1    
   101   51  118 1    
   102   51  119 1    
   103   52   53 2    
   104   52   54 am   BACKBONE|DICT|INTERRES
   105   54   55 1    
   106   54  120 1    
   107   55   56 1    
   108   55   57 1    
   109   55  121 1    
   110   56  122 1    
   111   56  123 1    
   112   56  124 1    
   113   57   58 2    
   114   57   59 am   BACKBONE|DICT|INTERRES
   115   59   60 1    
   116   59  125 1    
   117   60   61 1    
   118   60   62 1    
   119   60  126 1    
   120   61  127 1    
   121   61  128 1    
   122   61  129 1    
   123   62   63 2    
   124   62   64 am   BACKBONE|DICT|INTERRES
   125   64   65 1    
   126   64  130 1    
   127   65   66 1    
   128   65   69 1    
   129   65  131 1    
   130   66   67 am   BACKBONE|DICT|INTERRES
   131   66   68 2    
   132   67  132 1    
   133   67  133 1    
   134   69   70 1    
   135   69  134 1    
   136   69  135 1    
   137   70   71 1    
   138   71  136 1    
   139   71  137 1    
@<TRIPOS>SUBSTRUCTURE
     1 UNK         1 GROUP             0       ****    0 ROOT    
