@<TRIPOS>MOLECULE
3R137
137   139    1
SMALL
USER_CHARGES


@<TRIPOS>ATOM
      1 CA         25.8682   -5.2785   -1.6259 C.3       0 UNK        -0.2020 
      2 C          26.0934   -4.6988   -0.2376 C.2       0 UNK         0.4855 
      3 O          25.4588   -5.1448    0.7178 O.2       0 UNK        -0.5197 
      4 N          27.0063   -3.7243   -0.1221 N.am      1 UNK        -0.4892 
      5 CA         27.4114   -3.0690    1.1306 C.3       1 UNK         0.0835 
      6 C6         28.6645   -2.1520    0.9972 C.3       12 UNK        -0.0855 
      7 S7         29.9225   -2.7794   -0.1732 S.3       12 UNK        -0.2931 
      8 C8         29.6703   -1.6527   -1.5834 C.3       12 UNK         0.0378 
      9 C9         30.0396   -2.3127   -2.9020 C.ar      12 UNK        -0.0802 
     10 C10        31.2489   -2.0110   -3.5317 C.ar      12 UNK        -0.0944 
     11 C11        31.5768   -2.6011   -4.7563 C.ar      12 UNK        -0.0787 
     12 C12        30.6835   -3.4983   -5.3539 C.ar      12 UNK        -0.0862 
     13 C13        29.4685   -3.8050   -4.7333 C.ar      12 UNK        -0.0733 
     14 C14        29.1537   -3.2060   -3.5107 C.ar      12 UNK        -0.0832 
     15 C15        28.5097   -4.8169   -5.3449 C.3       12 UNK         0.0240 
     16 S16        26.9372   -4.0563   -5.8635 S.3       12 UNK        -0.2522 
     17 C17        27.2274   -3.6868   -7.6312 C.3       12 UNK        -0.0967 
     18 CA         26.9432   -2.2173   -8.0342 C.3       5 UNK         0.0660 
     19 N          25.6516   -1.7328   -7.5340 N.am      5 UNK        -0.4015 
     20 C          25.1160   -0.5303   -7.7867 C.2       4 UNK         0.4946 
     21 O          25.6209    0.2934   -8.5493 O.2       4 UNK        -0.5353 
     22 CA         23.8263   -0.1480   -7.0387 C.3       4 UNK         0.0277 
     23 CB         22.6085   -0.3327   -7.9580 C.3       4 UNK        -0.1981 
     24 N          23.5880   -0.8513   -5.7703 N.am      4 UNK        -0.4209 
     25 C          24.4214   -0.8922   -4.7212 C.2       3 UNK         0.4942 
     26 O          25.5671   -0.4288   -4.7262 O.2       3 UNK        -0.5208 
     27 CA         23.8882   -1.5870   -3.4619 C.3       3 UNK         0.0250 
     28 CB         23.7645   -3.1086   -3.6634 C.3       3 UNK        -0.1990 
     29 N          24.8056   -1.2910   -2.3683 N.am      3 UNK        -0.4232 
     30 C          24.5301   -1.3387   -1.0618 C.2       2 UNK         0.4993 
     31 O          23.4465   -1.6927   -0.5912 O.2       2 UNK        -0.5286 
     32 CA         25.6608   -0.8753   -0.1346 C.3       2 UNK         0.0209 
     33 CB         25.6727    0.6596   -0.0365 C.3       2 UNK        -0.1931 
     34 N          25.4987   -1.4272    1.2140 N.am      2 UNK        -0.4546 
     35 C          26.2446   -2.3462    1.8517 C.2       1 UNK         0.5154 
     36 O          26.0057   -2.6486    3.0204 O.2       1 UNK        -0.5181 
     37 C          28.1240   -1.2870   -7.6877 C.2       5 UNK         0.5014 
     38 O          29.0063   -1.1117   -8.5298 O.2       5 UNK        -0.5248 
     39 N          28.0862   -0.6618   -6.5001 N.am      6 UNK        -0.4434 
     40 CA         29.0779    0.3148   -6.0437 C.3       6 UNK         0.0363 
     41 CB         28.7695    0.7130   -4.5926 C.3       6 UNK        -0.1936 
     42 C          29.1330    1.5702   -6.9293 C.2       6 UNK         0.5081 
     43 O          30.2185    2.1040   -7.1593 O.2       6 UNK        -0.5248 
     44 N          27.9633    2.0101   -7.4111 N.am      7 UNK        -0.4718 
     45 CA         27.8163    3.1486   -8.3137 C.3       7 UNK         0.0273 
     46 CB         26.4153    3.7597   -8.1484 C.3       7 UNK        -0.1935 
     47 C          28.0674    2.7435   -9.7719 C.2       7 UNK         0.5018 
     48 O          28.7731    3.4622  -10.4782 O.2       7 UNK        -0.5186 
     49 N          27.5041    1.6006  -10.1920 N.am      8 UNK        -0.4240 
     50 CA         27.5823    1.0786  -11.5596 C.3       8 UNK         0.0235 
     51 CB         26.6578   -0.1398  -11.7072 C.3       8 UNK        -0.2000 
     52 C          29.0117    0.7339  -12.0052 C.2       8 UNK         0.4941 
     53 O          29.3907    1.0840  -13.1235 O.2       8 UNK        -0.5273 
     54 N          29.7859    0.0834  -11.1248 N.am      9 UNK        -0.4262 
     55 CA         31.2038   -0.2125  -11.3549 C.3       9 UNK         0.0264 
     56 CB         31.5725   -1.5094  -10.6170 C.3       9 UNK        -0.1955 
     57 C          32.1318    0.9431  -10.9330 C.2       9 UNK         0.5031 
     58 O          33.3285    0.8757  -11.2161 O.2       9 UNK        -0.5390 
     59 N          31.5793    1.9627  -10.2550 N.am      10 UNK        -0.4204 
     60 CA         32.2464    3.1471   -9.6942 C.3       10 UNK         0.0237 
     61 CB         32.7992    4.0478  -10.8190 C.3       10 UNK        -0.1985 
     62 C          33.3035    2.8219   -8.6171 C.2       10 UNK         0.4970 
     63 O          34.2004    3.6322   -8.3761 O.2       10 UNK        -0.4914 
     64 N          33.1784    1.6481   -7.9896 N.am      11 UNK        -0.4285 
     65 CA         34.0580    1.1415   -6.9306 C.3       11 UNK         0.1007 
     66 C          33.6487    1.5873   -5.4971 C.2       11 UNK         0.5703 
     67 N          32.4738    2.1710   -5.2890 N.am      11 UNK        -0.7361 
     68 O          34.4237    1.4159   -4.5592 O.2       11 UNK        -0.4986 
     69 C69        34.2345   -0.3949   -7.0528 C.3       12 UNK        -0.0947 
     70 S70        32.6580   -1.3091   -6.9395 S.3       12 UNK        -0.2240 
     71 C71        32.9040   -2.2737   -5.4208 C.3       12 UNK         0.0194 
     72 H72        26.2877   -4.6470   -2.4071 H         1 UNK         0.0906 
     73 H73        26.3282   -6.2635   -1.6993 H         1 UNK         0.0906 
     74 H74        24.8016   -5.3887   -1.8185 H         1 UNK         0.0906 
     75 H75        27.5544   -3.4628   -0.9263 H         1 UNK         0.3140 
     76 H76        27.7066   -3.8890    1.7897 H         1 UNK         0.1085 
     77 H77        28.4032   -1.1292    0.7239 H         1 UNK         0.0836 
     78 H78        29.1430   -2.0597    1.9741 H         1 UNK         0.0836 
     79 H79        28.6300   -1.3344   -1.6369 H         1 UNK         0.0731 
     80 H80        30.2563   -0.7458   -1.4255 H         1 UNK         0.0731 
     81 H81        31.9349   -1.3148   -3.0685 H         1 UNK         0.1312 
     82 H82        30.9401   -3.9570   -6.2990 H         1 UNK         0.1406 
     83 H83        28.2140   -3.4407   -3.0352 H         1 UNK         0.1631 
     84 H84        28.2892   -5.5796   -4.5966 H         1 UNK         0.0717 
     85 H85        28.9697   -5.3456   -6.1809 H         1 UNK         0.0717 
     86 H86        28.2403   -3.9754   -7.9198 H         1 UNK         0.0934 
     87 H87        26.5715   -4.3439   -8.2043 H         1 UNK         0.0934 
     88 H88        26.8645   -2.2020   -9.1221 H         1 UNK         0.0739 
     89 H89        25.1841   -2.3373   -6.8747 H         1 UNK         0.3093 
     90 H90        23.9114    0.9141   -6.7995 H         1 UNK         0.0818 
     91 H91        21.6995    0.0565   -7.4989 H         1 UNK         0.0819 
     92 H92        22.7448    0.2013   -8.8999 H         1 UNK         0.0819 
     93 H93        22.4412   -1.3828   -8.2007 H         1 UNK         0.0819 
     94 H94        22.6777   -1.2773   -5.6685 H         1 UNK         0.3041 
     95 H95        22.9086   -1.1644   -3.2282 H         1 UNK         0.0784 
     96 H96        23.0773   -3.3489   -4.4752 H         1 UNK         0.0793 
     97 H97        24.7256   -3.5604   -3.9059 H         1 UNK         0.0793 
     98 H98        23.3800   -3.5958   -2.7675 H         1 UNK         0.0793 
     99 H99        25.6855   -0.9082   -2.6951 H         1 UNK         0.3024 
    100 H100       26.5988   -1.1878   -0.5835 H         1 UNK         0.1171 
    101 H101       26.4871    1.0093    0.5984 H         1 UNK         0.0786 
    102 H102       25.8103    1.1184   -1.0168 H         1 UNK         0.0786 
    103 H103       24.7392    1.0458    0.3753 H         1 UNK         0.0786 
    104 H104       24.6875   -1.0777    1.7031 H         1 UNK         0.2977 
    105 H105       27.2966   -0.8290   -5.8851 H         1 UNK         0.3127 
    106 H106       30.0565   -0.1670   -6.0716 H         1 UNK         0.0770 
    107 H107       27.8354    1.2712   -4.5156 H         1 UNK         0.0814 
    108 H108       29.5629    1.3402   -4.1845 H         1 UNK         0.0814 
    109 H109       28.6814   -0.1614   -3.9519 H         1 UNK         0.0814 
    110 H110       27.1299    1.4709   -7.2179 H         1 UNK         0.2983 
    111 H111       28.5516    3.9115   -8.0464 H         1 UNK         0.0947 
    112 H112       26.2880    4.6230   -8.8029 H         1 UNK         0.0806 
    113 H113       26.2517    4.1020   -7.1264 H         1 UNK         0.0806 
    114 H114       25.6269    3.0467   -8.3926 H         1 UNK         0.0806 
    115 H115       26.9048    1.0898   -9.5445 H         1 UNK         0.3000 
    116 H116       27.2130    1.8627  -12.2242 H         1 UNK         0.0850 
    117 H117       26.6507   -0.5014  -12.7363 H         1 UNK         0.0810 
    118 H118       25.6292    0.1064  -11.4424 H         1 UNK         0.0810 
    119 H119       26.9782   -0.9663  -11.0742 H         1 UNK         0.0810 
    120 H120       29.3992   -0.2083  -10.2291 H         1 UNK         0.3040 
    121 H121       31.3699   -0.3821  -12.4210 H         1 UNK         0.0766 
    122 H122       31.4219   -1.4154   -9.5430 H         1 UNK         0.0812 
    123 H123       32.6190   -1.7718  -10.7777 H         1 UNK         0.0812 
    124 H124       30.9699   -2.3483  -10.9648 H         1 UNK         0.0812 
    125 H125       30.5808    1.9269  -10.1010 H         1 UNK         0.3205 
    126 H126       31.4656    3.7091   -9.1795 H         1 UNK         0.0754 
    127 H127       33.1604    4.9969  -10.4211 H         1 UNK         0.0769 
    128 H128       32.0277    4.2799  -11.5534 H         1 UNK         0.0769 
    129 H129       33.6316    3.5768  -11.3428 H         1 UNK         0.0769 
    130 H130       32.3786    1.0707   -8.2035 H         1 UNK         0.2981 
    131 H131       35.0473    1.5744   -7.0893 H         1 UNK         0.0541 
    132 H132       31.8051    2.2724   -6.0461 H         1 UNK         0.3459 
    133 H133       32.2315    2.4684   -4.3584 H         1 UNK         0.3459 
    134 H134       34.9445   -0.7623   -6.3101 H         1 UNK         0.0612 
    135 H135       34.6800   -0.6312   -8.0203 H         1 UNK         0.0612 
    136 H136       33.5394   -1.7162   -4.7308 H         1 UNK         0.0624 
    137 H137       33.4369   -3.1946   -5.6605 H         1 UNK         0.0624 
@<TRIPOS>BOND
     1    1    2 1    
     2    1   72 1    
     3    1   73 1    
     4    1   74 1    
     5    2    3 2    
     6    2    4 am   BACKBONE|DICT|INTERRES
     7    4    5 1    
     8    4   75 1    
     9    5    6 1    
    10    5   35 1    
    11    5   76 1    
    12    6    7 1    
    13    6   77 1    
    14    6   78 1    
    15    7    8 1    
    16    8    9 1    
    17    8   79 1    
    18    8   80 1    
    19    9   10 ar   
    20    9   14 ar   
    21   10   11 ar   
    22   10   81 1    
    23   11   12 ar   
    24   11   71 1    
    25   12   13 ar   
    26   12   82 1    
    27   13   14 ar   
    28   13   15 1    
    29   14   83 1    
    30   15   16 1    
    31   15   84 1    
    32   15   85 1    
    33   16   17 1    
    34   17   18 1    
    35   17   86 1    
    36   17   87 1    
    37   18   19 1    
    38   18   37 1    
    39   18   88 1    
    40   19   20 am   BACKBONE|DICT|INTERRES
    41   19   89 1    
    42   20   21 2    
    43   20   22 1    
    44   22   23 1    
    45   22   24 1    
    46   22   90 1    
    47   23   91 1    
    48   23   92 1    
    49   23   93 1    
    50   24   25 am   BACKBONE|DICT|INTERRES
    51   24   94 1    
    52   25   26 2    
    53   25   27 1    
    54   27   28 1    
    55   27   29 1    
    56   27   95 1    
    57   28   96 1    
    58   28   97 1    
    59   28   98 1    
    60   29   30 am   BACKBONE|DICT|INTERRES
    61   29   99 1    
    62   30   31 2    
    63   30   32 1    
    64   32   33 1    
    65   32   34 1    
    66   32  100 1    
    67   33  101 1    
    68   33  102 1    
    69   33  103 1    
    70   34   35 am   BACKBONE|DICT|INTERRES
    71   34  104 1    
    72   35   36 2    
    73   37   38 2    
    74   37   39 am   BACKBONE|DICT|INTERRES
    75   39   40 1    
    76   39  105 1    
    77   40   41 1    
    78   40   42 1    
    79   40  106 1    
    80   41  107 1    
    81   41  108 1    
    82   41  109 1    
    83   42   43 2    
    84   42   44 am   BACKBONE|DICT|INTERRES
    85   44   45 1    
    86   44  110 1    
    87   45   46 1    
    88   45   47 1    
    89   45  111 1    
    90   46  112 1    
    91   46  113 1    
    92   46  114 1    
    93   47   48 2    
    94   47   49 am   BACKBONE|DICT|INTERRES
    95   49   50 1    
    96   49  115 1    
    97   50   51 1    
    98   50   52 1    
    99   50  116 1    
   100   51  117 1    
   101   51  118 1    
   102   51  119 1    
   103   52   53 2    
   104   52   54 am   BACKBONE|DICT|INTERRES
   105   54   55 1    
   106   54  120 1    
   107   55   56 1    
   108   55   57 1    
   109   55  121 1    
   110   56  122 1    
   111   56  123 1    
   112   56  124 1    
   113   57   58 2    
   114   57   59 am   BACKBONE|DICT|INTERRES
   115   59   60 1    
   116   59  125 1    
   117   60   61 1    
   118   60   62 1    
   119   60  126 1    
   120   61  127 1    
   121   61  128 1    
   122   61  129 1    
   123   62   63 2    
   124   62   64 am   BACKBONE|DICT|INTERRES
   125   64   65 1    
   126   64  130 1    
   127   65   66 1    
   128   65   69 1    
   129   65  131 1    
   130   66   67 am   BACKBONE|DICT|INTERRES
   131   66   68 2    
   132   67  132 1    
   133   67  133 1    
   134   69   70 1    
   135   69  134 1    
   136   69  135 1    
   137   70   71 1    
   138   71  136 1    
   139   71  137 1    
@<TRIPOS>SUBSTRUCTURE
     1 UNK         1 GROUP             0       ****    0 ROOT    
