@<TRIPOS>MOLECULE
3R137
137   139    1
SMALL
USER_CHARGES


@<TRIPOS>ATOM
      1 CA         28.3160   -1.6681    3.4139 C.3       0 UNK        -0.2020 
      2 C          28.7410   -0.8424    2.2091 C.2       0 UNK         0.4855 
      3 O          29.0694    0.3346    2.3578 O.2       0 UNK        -0.5197 
      4 N          28.7361   -1.4489    1.0152 N.am      1 UNK        -0.4892 
      5 CA         29.0933   -0.8051   -0.2567 C.3       1 UNK         0.0835 
      6 C6         29.5150   -1.8500   -1.3206 C.3       12 UNK        -0.0855 
      7 S7         28.2222   -3.0909   -1.6990 S.3       12 UNK        -0.2931 
      8 C8         29.2205   -4.5182   -2.2297 C.3       12 UNK         0.0378 
      9 C9         29.6227   -4.4364   -3.6978 C.ar      12 UNK        -0.0802 
     10 C10        30.7102   -3.6514   -4.0917 C.ar      12 UNK        -0.0944 
     11 C11        31.1155   -3.6109   -5.4301 C.ar      12 UNK        -0.0787 
     12 C12        30.4353   -4.3875   -6.3758 C.ar      12 UNK        -0.0862 
     13 C13        29.3607   -5.1986   -5.9923 C.ar      12 UNK        -0.0733 
     14 C14        28.9464   -5.1992   -4.6557 C.ar      12 UNK        -0.0832 
     15 C15        28.7128   -6.1554   -6.9905 C.3       12 UNK         0.0240 
     16 S16        27.9469   -5.3334   -8.4240 S.3       12 UNK        -0.2522 
     17 C17        26.5184   -4.4942   -7.6590 C.3       12 UNK        -0.0967 
     18 CA         26.2881   -3.0670   -8.2157 C.3       5 UNK         0.0660 
     19 N          25.0246   -2.5050   -7.7314 N.am      5 UNK        -0.4015 
     20 C          24.4947   -1.3367   -8.1241 C.2       4 UNK         0.4946 
     21 O          24.9654   -0.6309   -9.0152 O.2       4 UNK        -0.5353 
     22 CA         23.2602   -0.8462   -7.3473 C.3       4 UNK         0.0277 
     23 CB         21.9708   -1.4019   -7.9722 C.3       4 UNK        -0.1981 
     24 N          23.3070   -1.1846   -5.9191 N.am      4 UNK        -0.4209 
     25 C          24.2426   -0.7420   -5.0677 C.2       3 UNK         0.4942 
     26 O          25.1603    0.0181   -5.3876 O.2       3 UNK        -0.5208 
     27 CA         24.1819   -1.2910   -3.6406 C.3       3 UNK         0.0250 
     28 CB         24.8240   -2.6903   -3.5698 C.3       3 UNK        -0.1990 
     29 N          24.8992   -0.3773   -2.7573 N.am      3 UNK        -0.4232 
     30 C          24.6796   -0.2390   -1.4469 C.2       2 UNK         0.4993 
     31 O          23.8439   -0.8909   -0.8168 O.2       2 UNK        -0.5286 
     32 CA         25.5857    0.7528   -0.7084 C.3       2 UNK         0.0209 
     33 CB         24.8967    1.3693    0.5236 C.3       2 UNK        -0.1931 
     34 N          26.7702    0.0208   -0.2723 N.am      2 UNK        -0.4546 
     35 C          27.9982    0.1481   -0.7904 C.2       1 UNK         0.5154 
     36 O          28.2864    0.9735   -1.6580 O.2       1 UNK        -0.5181 
     37 C          27.4738   -2.1310   -7.9085 C.2       5 UNK         0.5014 
     38 O          28.2653   -1.8385   -8.8046 O.2       5 UNK        -0.5248 
     39 N          27.5478   -1.6484   -6.6611 N.am      6 UNK        -0.4434 
     40 CA         28.5899   -0.7355   -6.2000 C.3       6 UNK         0.0363 
     41 CB         28.5201   -0.6003   -4.6756 C.3       6 UNK        -0.1936 
     42 C          28.5137    0.6368   -6.8796 C.2       6 UNK         0.5081 
     43 O          29.5515    1.1804   -7.2550 O.2       6 UNK        -0.5248 
     44 N          27.2889    1.1468   -7.0703 N.am      7 UNK        -0.4718 
     45 CA         27.0075    2.3752   -7.8149 C.3       7 UNK         0.0273 
     46 CB         25.5220    2.7393   -7.6669 C.3       7 UNK        -0.1935 
     47 C          27.4053    2.2772   -9.2983 C.2       7 UNK         0.5018 
     48 O          27.9827    3.2275   -9.8269 O.2       7 UNK        -0.5186 
     49 N          27.1171    1.1305   -9.9322 N.am      8 UNK        -0.4240 
     50 CA         27.5103    0.8229  -11.3095 C.3       8 UNK         0.0235 
     51 CB         26.7587   -0.4252  -11.8003 C.3       8 UNK        -0.2000 
     52 C          29.0297    0.6440  -11.4682 C.2       8 UNK         0.4941 
     53 O          29.5994    1.1676  -12.4266 O.2       8 UNK        -0.5273 
     54 N          29.6583   -0.0799  -10.5305 N.am      9 UNK        -0.4262 
     55 CA         31.1059   -0.3054  -10.4833 C.3       9 UNK         0.0264 
     56 CB         31.4160   -1.4167   -9.4657 C.3       9 UNK        -0.1955 
     57 C          31.9121    0.9599  -10.1429 C.2       9 UNK         0.5031 
     58 O          33.0523    1.0797  -10.5936 O.2       9 UNK        -0.5390 
     59 N          31.3176    1.8545   -9.3388 N.am      10 UNK        -0.4204 
     60 CA         31.9046    3.0630   -8.7487 C.3       10 UNK         0.0237 
     61 CB         32.2845    4.0922   -9.8348 C.3       10 UNK        -0.1985 
     62 C          33.0589    2.7389   -7.7788 C.2       10 UNK         0.4970 
     63 O          34.0265    3.4983   -7.6955 O.2       10 UNK        -0.4914 
     64 N          32.9394    1.6062   -7.0746 N.am      11 UNK        -0.4285 
     65 CA         33.9059    1.1224   -6.0822 C.3       11 UNK         0.1007 
     66 C          33.8374    1.8913   -4.7318 C.2       11 UNK         0.5703 
     67 N          34.8572    1.7572   -3.8939 N.am      11 UNK        -0.7361 
     68 O          32.8759    2.5959   -4.4278 O.2       11 UNK        -0.4986 
     69 C69        33.8182   -0.4186   -5.9122 C.3       12 UNK        -0.0947 
     70 S70        32.1785   -1.0300   -5.3980 S.3       12 UNK        -0.2240 
     71 C71        32.3339   -2.7901   -5.8384 C.3       12 UNK         0.0194 
     72 H72        27.4481   -1.2147    3.8923 H         1 UNK         0.0906 
     73 H73        28.0558   -2.6899    3.1378 H         1 UNK         0.0906 
     74 H74        29.1241   -1.7099    4.1437 H         1 UNK         0.0906 
     75 H75        28.4580   -2.4184    0.9413 H         1 UNK         0.3140 
     76 H76        29.9643   -0.1725   -0.0693 H         1 UNK         0.1085 
     77 H77        29.8226   -1.3544   -2.2418 H         1 UNK         0.0836 
     78 H78        30.4059   -2.3690   -0.9640 H         1 UNK         0.0836 
     79 H79        28.6383   -5.4241   -2.0540 H         1 UNK         0.0731 
     80 H80        30.1081   -4.6123   -1.6027 H         1 UNK         0.0731 
     81 H81        31.2527   -3.0771   -3.3539 H         1 UNK         0.1312 
     82 H82        30.7616   -4.3912   -7.4069 H         1 UNK         0.1406 
     83 H83        28.1240   -5.8314   -4.3490 H         1 UNK         0.1631 
     84 H84        27.9622   -6.7799   -6.5034 H         1 UNK         0.0717 
     85 H85        29.4793   -6.8393   -7.3575 H         1 UNK         0.0717 
     86 H86        25.6403   -5.1131   -7.8502 H         1 UNK         0.0934 
     87 H87        26.6376   -4.4704   -6.5741 H         1 UNK         0.0934 
     88 H88        26.2050   -3.1368   -9.3026 H         1 UNK         0.0739 
     89 H89        24.5498   -3.0191   -7.0050 H         1 UNK         0.3093 
     90 H90        23.2353    0.2426   -7.4275 H         1 UNK         0.0818 
     91 H91        21.0853   -0.9883   -7.4892 H         1 UNK         0.0819 
     92 H92        21.9092   -1.1440   -9.0306 H         1 UNK         0.0819 
     93 H93        21.9178   -2.4888   -7.8984 H         1 UNK         0.0819 
     94 H94        22.5858   -1.8029   -5.5745 H         1 UNK         0.3041 
     95 H95        23.1347   -1.3460   -3.3351 H         1 UNK         0.0784 
     96 H96        24.3117   -3.3976   -4.2227 H         1 UNK         0.0793 
     97 H97        25.8740   -2.6680   -3.8648 H         1 UNK         0.0793 
     98 H98        24.7769   -3.0961   -2.5589 H         1 UNK         0.0793 
     99 H99        25.5783    0.2080   -3.2285 H         1 UNK         0.3024 
    100 H100       25.8494    1.5635   -1.3919 H         1 UNK         0.1171 
    101 H101       25.5454    2.0953    1.0141 H         1 UNK         0.0786 
    102 H102       23.9825    1.8912    0.2379 H         1 UNK         0.0786 
    103 H103       24.6254    0.6142    1.2626 H         1 UNK         0.0786 
    104 H104       26.6189   -0.7153    0.4027 H         1 UNK         0.2977 
    105 H105       26.8276   -1.8850   -5.9970 H         1 UNK         0.3127 
    106 H106       29.5472   -1.1857   -6.4632 H         1 UNK         0.0770 
    107 H107       27.6005   -0.1194   -4.3444 H         1 UNK         0.0814 
    108 H108       29.3521   -0.0027   -4.3011 H         1 UNK         0.0814 
    109 H109       28.5781   -1.5782   -4.2018 H         1 UNK         0.0814 
    110 H110       26.4937    0.6531   -6.6739 H         1 UNK         0.2983 
    111 H111       27.6017    3.1744   -7.3664 H         1 UNK         0.0947 
    112 H112       25.3014    3.6845   -8.1646 H         1 UNK         0.0806 
    113 H113       25.2428    2.8500   -6.6188 H         1 UNK         0.0806 
    114 H114       24.8746    1.9807   -8.1066 H         1 UNK         0.0806 
    115 H115       26.5798    0.4210   -9.4406 H         1 UNK         0.3000 
    116 H116       27.2103    1.6650  -11.9369 H         1 UNK         0.0850 
    117 H117       27.0270   -0.6636  -12.8303 H         1 UNK         0.0810 
    118 H118       25.6796   -0.2728  -11.7724 H         1 UNK         0.0810 
    119 H119       26.9863   -1.3006  -11.1912 H         1 UNK         0.0810 
    120 H120       29.1010   -0.5497   -9.8174 H         1 UNK         0.3040 
    121 H121       31.4259   -0.6458  -11.4702 H         1 UNK         0.0766 
    122 H122       31.0869   -1.1459   -8.4617 H         1 UNK         0.0812 
    123 H123       32.4872   -1.6166   -9.4157 H         1 UNK         0.0812 
    124 H124       30.9231   -2.3509   -9.7354 H         1 UNK         0.0812 
    125 H125       30.4136    1.5996   -8.9488 H         1 UNK         0.3205 
    126 H126       31.1171    3.5073   -8.1381 H         1 UNK         0.0754 
    127 H127       32.5785    5.0420   -9.3866 H         1 UNK         0.0769 
    128 H128       31.4432    4.2941  -10.4981 H         1 UNK         0.0769 
    129 H129       33.1199    3.7497  -10.4459 H         1 UNK         0.0769 
    130 H130       32.0795    1.0801   -7.1446 H         1 UNK         0.2981 
    131 H131       34.8977    1.3316   -6.4882 H         1 UNK         0.0541 
    132 H132       35.6522    1.1823   -4.1255 H         1 UNK         0.3459 
    133 H133       34.8312    2.2431   -3.0112 H         1 UNK         0.3459 
    134 H134       34.5607   -0.7733   -5.1955 H         1 UNK         0.0612 
    135 H135       34.0750   -0.8928   -6.8609 H         1 UNK         0.0612 
    136 H136       32.5080   -2.8683   -6.9125 H         1 UNK         0.0624 
    137 H137       33.2160   -3.2037   -5.3479 H         1 UNK         0.0624 
@<TRIPOS>BOND
     1    1    2 1    
     2    1   72 1    
     3    1   73 1    
     4    1   74 1    
     5    2    3 2    
     6    2    4 am   BACKBONE|DICT|INTERRES
     7    4    5 1    
     8    4   75 1    
     9    5    6 1    
    10    5   35 1    
    11    5   76 1    
    12    6    7 1    
    13    6   77 1    
    14    6   78 1    
    15    7    8 1    
    16    8    9 1    
    17    8   79 1    
    18    8   80 1    
    19    9   10 ar   
    20    9   14 ar   
    21   10   11 ar   
    22   10   81 1    
    23   11   12 ar   
    24   11   71 1    
    25   12   13 ar   
    26   12   82 1    
    27   13   14 ar   
    28   13   15 1    
    29   14   83 1    
    30   15   16 1    
    31   15   84 1    
    32   15   85 1    
    33   16   17 1    
    34   17   18 1    
    35   17   86 1    
    36   17   87 1    
    37   18   19 1    
    38   18   37 1    
    39   18   88 1    
    40   19   20 am   BACKBONE|DICT|INTERRES
    41   19   89 1    
    42   20   21 2    
    43   20   22 1    
    44   22   23 1    
    45   22   24 1    
    46   22   90 1    
    47   23   91 1    
    48   23   92 1    
    49   23   93 1    
    50   24   25 am   BACKBONE|DICT|INTERRES
    51   24   94 1    
    52   25   26 2    
    53   25   27 1    
    54   27   28 1    
    55   27   29 1    
    56   27   95 1    
    57   28   96 1    
    58   28   97 1    
    59   28   98 1    
    60   29   30 am   BACKBONE|DICT|INTERRES
    61   29   99 1    
    62   30   31 2    
    63   30   32 1    
    64   32   33 1    
    65   32   34 1    
    66   32  100 1    
    67   33  101 1    
    68   33  102 1    
    69   33  103 1    
    70   34   35 am   BACKBONE|DICT|INTERRES
    71   34  104 1    
    72   35   36 2    
    73   37   38 2    
    74   37   39 am   BACKBONE|DICT|INTERRES
    75   39   40 1    
    76   39  105 1    
    77   40   41 1    
    78   40   42 1    
    79   40  106 1    
    80   41  107 1    
    81   41  108 1    
    82   41  109 1    
    83   42   43 2    
    84   42   44 am   BACKBONE|DICT|INTERRES
    85   44   45 1    
    86   44  110 1    
    87   45   46 1    
    88   45   47 1    
    89   45  111 1    
    90   46  112 1    
    91   46  113 1    
    92   46  114 1    
    93   47   48 2    
    94   47   49 am   BACKBONE|DICT|INTERRES
    95   49   50 1    
    96   49  115 1    
    97   50   51 1    
    98   50   52 1    
    99   50  116 1    
   100   51  117 1    
   101   51  118 1    
   102   51  119 1    
   103   52   53 2    
   104   52   54 am   BACKBONE|DICT|INTERRES
   105   54   55 1    
   106   54  120 1    
   107   55   56 1    
   108   55   57 1    
   109   55  121 1    
   110   56  122 1    
   111   56  123 1    
   112   56  124 1    
   113   57   58 2    
   114   57   59 am   BACKBONE|DICT|INTERRES
   115   59   60 1    
   116   59  125 1    
   117   60   61 1    
   118   60   62 1    
   119   60  126 1    
   120   61  127 1    
   121   61  128 1    
   122   61  129 1    
   123   62   63 2    
   124   62   64 am   BACKBONE|DICT|INTERRES
   125   64   65 1    
   126   64  130 1    
   127   65   66 1    
   128   65   69 1    
   129   65  131 1    
   130   66   67 am   BACKBONE|DICT|INTERRES
   131   66   68 2    
   132   67  132 1    
   133   67  133 1    
   134   69   70 1    
   135   69  134 1    
   136   69  135 1    
   137   70   71 1    
   138   71  136 1    
   139   71  137 1    
@<TRIPOS>SUBSTRUCTURE
     1 UNK         1 GROUP             0       ****    0 ROOT    
