@<TRIPOS>MOLECULE
3R137
137   139    1
SMALL
USER_CHARGES


@<TRIPOS>ATOM
      1 CA         29.0884   -2.9753   -4.4429 C.3       0 UNK        -0.2020 
      2 C          28.3431   -3.9886   -3.5922 C.2       0 UNK         0.4855 
      3 O          27.6968   -4.8858   -4.1348 O.2       0 UNK        -0.5197 
      4 N          28.4214   -3.8620   -2.2623 N.am      1 UNK        -0.4892 
      5 CA         27.7076   -4.7155   -1.3082 C.3       1 UNK         0.0835 
      6 C6         28.2281   -4.5513    0.1391 C.3       12 UNK        -0.0855 
      7 S7         29.9828   -5.0293    0.2883 S.3       12 UNK        -0.2931 
      8 C8         30.7472   -3.4871    0.8785 C.3       12 UNK         0.0378 
      9 C9         30.8273   -2.4206   -0.2056 C.ar      12 UNK        -0.0802 
     10 C10        31.8504   -2.4638   -1.1566 C.ar      12 UNK        -0.0944 
     11 C11        31.9844   -1.4454   -2.1053 C.ar      12 UNK        -0.0787 
     12 C12        31.0776   -0.3802   -2.1043 C.ar      12 UNK        -0.0862 
     13 C13        30.0384   -0.3348   -1.1687 C.ar      12 UNK        -0.0733 
     14 C14        29.9175   -1.3594   -0.2245 C.ar      12 UNK        -0.0832 
     15 C15        29.0744    0.8428   -1.1329 C.3       12 UNK         0.0240 
     16 S16        27.7790    0.7109   -2.4054 S.3       12 UNK        -0.2522 
     17 C17        28.5037    1.6510   -3.7937 C.3       12 UNK        -0.0967 
     18 CA         28.5269    0.8348   -5.1135 C.3       5 UNK         0.0660 
     19 N          27.1686    0.4131   -5.5011 N.am      5 UNK        -0.4015 
     20 C          26.3783    0.7648   -6.5269 C.2       4 UNK         0.4946 
     21 O          26.7281    1.4486   -7.4936 O.2       4 UNK        -0.5353 
     22 CA         24.9208    0.2598   -6.4510 C.3       4 UNK         0.0277 
     23 CB         24.0395    0.8463   -7.5688 C.3       4 UNK        -0.1981 
     24 N          24.7901   -1.2004   -6.4854 N.am      4 UNK        -0.4209 
     25 C          25.1073   -2.0463   -5.4979 C.2       3 UNK         0.4942 
     26 O          25.6434   -1.6942   -4.4443 O.2       3 UNK        -0.5208 
     27 CA         24.7780   -3.5274   -5.7506 C.3       3 UNK         0.0250 
     28 CB         25.7557   -4.1512   -6.7611 C.3       3 UNK        -0.1990 
     29 N          24.8251   -4.2965   -4.5065 N.am      3 UNK        -0.4232 
     30 C          23.8076   -4.3993   -3.6384 C.2       2 UNK         0.4993 
     31 O          22.6984   -3.8973   -3.8280 O.2       2 UNK        -0.5286 
     32 CA         24.0403   -5.2140   -2.3516 C.3       2 UNK         0.0209 
     33 CB         23.4001   -6.6070   -2.4753 C.3       2 UNK        -0.1931 
     34 N          25.4592   -5.3696   -2.0256 N.am      2 UNK        -0.4546 
     35 C          26.1938   -4.4413   -1.3997 C.2       1 UNK         0.5154 
     36 O          25.7317   -3.3974   -0.9343 O.2       1 UNK        -0.5181 
     37 C          29.3602    1.4963   -6.2350 C.2       5 UNK         0.5014 
     38 O          29.7005    0.8235   -7.2068 O.2       5 UNK        -0.5248 
     39 N          29.6937    2.7849   -6.0935 N.am      6 UNK        -0.4434 
     40 CA         30.3906    3.5714   -7.1153 C.3       6 UNK         0.0363 
     41 CB         31.3043    4.5910   -6.4145 C.3       6 UNK        -0.1936 
     42 C          29.4189    4.2822   -8.0770 C.2       6 UNK         0.5081 
     43 O          29.8765    4.8875   -9.0462 O.2       6 UNK        -0.5248 
     44 N          28.1100    4.2260   -7.7903 N.am      7 UNK        -0.4718 
     45 CA         27.0555    4.8901   -8.5567 C.3       7 UNK         0.0273 
     46 CB         25.7687    4.9451   -7.7173 C.3       7 UNK        -0.1935 
     47 C          26.7947    4.2217   -9.9143 C.2       7 UNK         0.5018 
     48 O          26.6321    4.9318  -10.9080 O.2       7 UNK        -0.5186 
     49 N          26.7644    2.8826   -9.9357 N.am      8 UNK        -0.4240 
     50 CA         26.5414    2.0940  -11.1502 C.3       8 UNK         0.0235 
     51 CB         25.0334    1.9390  -11.4201 C.3       8 UNK        -0.2000 
     52 C          27.2487    0.7312  -11.1459 C.2       8 UNK         0.4941 
     53 O          27.5198    0.2184  -12.2326 O.2       8 UNK        -0.5273 
     54 N          27.5519    0.1567   -9.9697 N.am      9 UNK        -0.4262 
     55 CA         28.2482   -1.1361   -9.8705 C.3       9 UNK         0.0264 
     56 CB         27.9449   -1.7941   -8.5153 C.3       9 UNK        -0.1955 
     57 C          29.7669   -1.0372  -10.1161 C.2       9 UNK         0.5031 
     58 O          30.3981   -2.0653  -10.3654 O.2       9 UNK        -0.5390 
     59 N          30.3146    0.1861  -10.0508 N.am      10 UNK        -0.4204 
     60 CA         31.7205    0.5588  -10.2486 C.3       10 UNK         0.0237 
     61 CB         32.1619    0.2942  -11.7043 C.3       10 UNK        -0.1985 
     62 C          32.6719   -0.0609   -9.2047 C.2       10 UNK         0.4970 
     63 O          33.8120   -0.3943   -9.5333 O.2       10 UNK        -0.4914 
     64 N          32.1934   -0.1848   -7.9602 N.am      11 UNK        -0.4285 
     65 CA         32.9654   -0.6632   -6.8041 C.3       11 UNK         0.1007 
     66 C          34.0527    0.3370   -6.3083 C.2       11 UNK         0.5703 
     67 N          33.9536    1.6257   -6.6155 N.am      11 UNK        -0.7361 
     68 O          35.0104   -0.0625   -5.6516 O.2       11 UNK        -0.4986 
     69 C69        32.0151   -1.1066   -5.6581 C.3       12 UNK        -0.0947 
     70 S70        32.7303   -2.4093   -4.6009 S.3       12 UNK        -0.2240 
     71 C71        33.1427   -1.4797   -3.0919 C.3       12 UNK         0.0194 
     72 H72        29.8179   -3.4830   -5.0729 H         1 UNK         0.0906 
     73 H73        28.3900   -2.4445   -5.0886 H         1 UNK         0.0906 
     74 H74        29.6149   -2.2443   -3.8307 H         1 UNK         0.0906 
     75 H75        28.9720   -3.1173   -1.8567 H         1 UNK         0.3140 
     76 H76        27.8841   -5.7540   -1.5988 H         1 UNK         0.1085 
     77 H77        28.0819   -3.5291    0.4911 H         1 UNK         0.0836 
     78 H78        27.6572   -5.1861    0.8198 H         1 UNK         0.0836 
     79 H79        30.2004   -3.1180    1.7478 H         1 UNK         0.0731 
     80 H80        31.7540   -3.7128    1.2334 H         1 UNK         0.0731 
     81 H81        32.5588   -3.2812   -1.1427 H         1 UNK         0.1312 
     82 H82        31.1911    0.4207   -2.8203 H         1 UNK         0.1406 
     83 H83        29.1303   -1.3139    0.5162 H         1 UNK         0.1631 
     84 H84        29.6204    1.7818   -1.2327 H         1 UNK         0.0717 
     85 H85        28.5849    0.8931   -0.1591 H         1 UNK         0.0717 
     86 H86        27.9149    2.5622   -3.9155 H         1 UNK         0.0934 
     87 H87        29.5105    1.9673   -3.5169 H         1 UNK         0.0934 
     88 H88        29.0610   -0.0904   -4.8993 H         1 UNK         0.0739 
     89 H89        26.7357   -0.2256   -4.8364 H         1 UNK         0.3093 
     90 H90        24.5187    0.6128   -5.4988 H         1 UNK         0.0818 
     91 H91        22.9910    0.5842   -7.4265 H         1 UNK         0.0819 
     92 H92        24.0960    1.9349   -7.5922 H         1 UNK         0.0819 
     93 H93        24.3464    0.4788   -8.5472 H         1 UNK         0.0819 
     94 H94        24.3794   -1.5834   -7.3247 H         1 UNK         0.3041 
     95 H95        23.7697   -3.5912   -6.1658 H         1 UNK         0.0784 
     96 H96        25.6157   -5.2297   -6.8360 H         1 UNK         0.0793 
     97 H97        25.6004   -3.7431   -7.7596 H         1 UNK         0.0793 
     98 H98        26.7959   -3.9695   -6.4893 H         1 UNK         0.0793 
     99 H99        25.7354   -4.6676   -4.2502 H         1 UNK         0.3024 
    100 H100       23.5436   -4.6811   -1.5371 H         1 UNK         0.1171 
    101 H101       23.8515   -7.1900   -3.2791 H         1 UNK         0.0786 
    102 H102       22.3332   -6.5285   -2.6895 H         1 UNK         0.0786 
    103 H103       23.5016   -7.1741   -1.5498 H         1 UNK         0.0786 
    104 H104       25.9240   -6.1832   -2.4046 H         1 UNK         0.2977 
    105 H105       29.3948    3.2866   -5.2698 H         1 UNK         0.3127 
    106 H106       31.0207    2.9177   -7.7217 H         1 UNK         0.0770 
    107 H107       30.7337    5.3007   -5.8143 H         1 UNK         0.0814 
    108 H108       31.8777    5.1676   -7.1417 H         1 UNK         0.0814 
    109 H109       32.0216    4.0967   -5.7589 H         1 UNK         0.0814 
    110 H110       27.8107    3.6431   -7.0223 H         1 UNK         0.2983 
    111 H111       27.3744    5.9164   -8.7530 H         1 UNK         0.0947 
    112 H112       24.9629    5.4311   -8.2692 H         1 UNK         0.0806 
    113 H113       25.9190    5.5127   -6.7990 H         1 UNK         0.0806 
    114 H114       25.4213    3.9493   -7.4422 H         1 UNK         0.0806 
    115 H115       26.8631    2.3843   -9.0531 H         1 UNK         0.3000 
    116 H116       26.9750    2.6369  -11.9934 H         1 UNK         0.0850 
    117 H117       24.5241    1.4383  -10.5989 H         1 UNK         0.0810 
    118 H118       24.5553    2.9073  -11.5685 H         1 UNK         0.0810 
    119 H119       24.8551    1.3514  -12.3217 H         1 UNK         0.0810 
    120 H120       27.3000    0.6085   -9.0948 H         1 UNK         0.3040 
    121 H121       27.8476   -1.7974  -10.6422 H         1 UNK         0.0766 
    122 H122       26.8719   -1.8597   -8.3482 H         1 UNK         0.0812 
    123 H123       28.3811   -1.2485   -7.6816 H         1 UNK         0.0812 
    124 H124       28.3444   -2.8083   -8.4781 H         1 UNK         0.0812 
    125 H125       29.6997    0.9340   -9.7623 H         1 UNK         0.3205 
    126 H126       31.7681    1.6367  -10.0869 H         1 UNK         0.0754 
    127 H127       31.4792    0.7586  -12.4159 H         1 UNK         0.0769 
    128 H128       32.2041   -0.7724  -11.9273 H         1 UNK         0.0769 
    129 H129       33.1543    0.7050  -11.8941 H         1 UNK         0.0769 
    130 H130       31.2421    0.1248   -7.7666 H         1 UNK         0.2981 
    131 H131       33.5031   -1.5487   -7.1488 H         1 UNK         0.0541 
    132 H132       33.1837    1.9629   -7.1672 H         1 UNK         0.3459 
    133 H133       34.6687    2.2615   -6.2998 H         1 UNK         0.3459 
    134 H134       31.1022   -1.5295   -6.0801 H         1 UNK         0.0612 
    135 H135       31.6927   -0.2550   -5.0584 H         1 UNK         0.0612 
    136 H136       34.0072   -1.9524   -2.6234 H         1 UNK         0.0624 
    137 H137       33.4590   -0.4674   -3.3465 H         1 UNK         0.0624 
@<TRIPOS>BOND
     1    1    2 1    
     2    1   72 1    
     3    1   73 1    
     4    1   74 1    
     5    2    3 2    
     6    2    4 am   BACKBONE|DICT|INTERRES
     7    4    5 1    
     8    4   75 1    
     9    5    6 1    
    10    5   35 1    
    11    5   76 1    
    12    6    7 1    
    13    6   77 1    
    14    6   78 1    
    15    7    8 1    
    16    8    9 1    
    17    8   79 1    
    18    8   80 1    
    19    9   10 ar   
    20    9   14 ar   
    21   10   11 ar   
    22   10   81 1    
    23   11   12 ar   
    24   11   71 1    
    25   12   13 ar   
    26   12   82 1    
    27   13   14 ar   
    28   13   15 1    
    29   14   83 1    
    30   15   16 1    
    31   15   84 1    
    32   15   85 1    
    33   16   17 1    
    34   17   18 1    
    35   17   86 1    
    36   17   87 1    
    37   18   19 1    
    38   18   37 1    
    39   18   88 1    
    40   19   20 am   BACKBONE|DICT|INTERRES
    41   19   89 1    
    42   20   21 2    
    43   20   22 1    
    44   22   23 1    
    45   22   24 1    
    46   22   90 1    
    47   23   91 1    
    48   23   92 1    
    49   23   93 1    
    50   24   25 am   BACKBONE|DICT|INTERRES
    51   24   94 1    
    52   25   26 2    
    53   25   27 1    
    54   27   28 1    
    55   27   29 1    
    56   27   95 1    
    57   28   96 1    
    58   28   97 1    
    59   28   98 1    
    60   29   30 am   BACKBONE|DICT|INTERRES
    61   29   99 1    
    62   30   31 2    
    63   30   32 1    
    64   32   33 1    
    65   32   34 1    
    66   32  100 1    
    67   33  101 1    
    68   33  102 1    
    69   33  103 1    
    70   34   35 am   BACKBONE|DICT|INTERRES
    71   34  104 1    
    72   35   36 2    
    73   37   38 2    
    74   37   39 am   BACKBONE|DICT|INTERRES
    75   39   40 1    
    76   39  105 1    
    77   40   41 1    
    78   40   42 1    
    79   40  106 1    
    80   41  107 1    
    81   41  108 1    
    82   41  109 1    
    83   42   43 2    
    84   42   44 am   BACKBONE|DICT|INTERRES
    85   44   45 1    
    86   44  110 1    
    87   45   46 1    
    88   45   47 1    
    89   45  111 1    
    90   46  112 1    
    91   46  113 1    
    92   46  114 1    
    93   47   48 2    
    94   47   49 am   BACKBONE|DICT|INTERRES
    95   49   50 1    
    96   49  115 1    
    97   50   51 1    
    98   50   52 1    
    99   50  116 1    
   100   51  117 1    
   101   51  118 1    
   102   51  119 1    
   103   52   53 2    
   104   52   54 am   BACKBONE|DICT|INTERRES
   105   54   55 1    
   106   54  120 1    
   107   55   56 1    
   108   55   57 1    
   109   55  121 1    
   110   56  122 1    
   111   56  123 1    
   112   56  124 1    
   113   57   58 2    
   114   57   59 am   BACKBONE|DICT|INTERRES
   115   59   60 1    
   116   59  125 1    
   117   60   61 1    
   118   60   62 1    
   119   60  126 1    
   120   61  127 1    
   121   61  128 1    
   122   61  129 1    
   123   62   63 2    
   124   62   64 am   BACKBONE|DICT|INTERRES
   125   64   65 1    
   126   64  130 1    
   127   65   66 1    
   128   65   69 1    
   129   65  131 1    
   130   66   67 am   BACKBONE|DICT|INTERRES
   131   66   68 2    
   132   67  132 1    
   133   67  133 1    
   134   69   70 1    
   135   69  134 1    
   136   69  135 1    
   137   70   71 1    
   138   71  136 1    
   139   71  137 1    
@<TRIPOS>SUBSTRUCTURE
     1 UNK         1 GROUP             0       ****    0 ROOT    
