@<TRIPOS>MOLECULE
3R137
137   139    1
SMALL
USER_CHARGES


@<TRIPOS>ATOM
      1 CA         25.9974   -4.3431    2.4932 C.3       0 UNK        -0.2020 
      2 C          26.6487   -3.2160    1.7060 C.2       0 UNK         0.4855 
      3 O          27.1610   -2.2687    2.3025 O.2       0 UNK        -0.5197 
      4 N          26.6318   -3.3092    0.3698 N.am      1 UNK        -0.4892 
      5 CA         27.2280   -2.3263   -0.5491 C.3       1 UNK         0.0835 
      6 C6         27.4691   -2.9187   -1.9621 C.3       12 UNK        -0.0855 
      7 S7         28.4121   -4.4814   -1.9229 S.3       12 UNK        -0.2931 
      8 C8         30.1328   -3.8894   -2.0392 C.3       12 UNK         0.0378 
      9 C9         30.5102   -3.4429   -3.4460 C.ar      12 UNK        -0.0802 
     10 C10        31.0170   -2.1596   -3.6705 C.ar      12 UNK        -0.0944 
     11 C11        31.3977   -1.7600   -4.9556 C.ar      12 UNK        -0.0787 
     12 C12        31.2552   -2.6502   -6.0253 C.ar      12 UNK        -0.0862 
     13 C13        30.7486   -3.9363   -5.8133 C.ar      12 UNK        -0.0733 
     14 C14        30.3888   -4.3281   -4.5206 C.ar      12 UNK        -0.0832 
     15 C15        30.5964   -4.9164   -6.9700 C.3       12 UNK         0.0240 
     16 S16        29.3673   -4.3910   -8.2103 S.3       12 UNK        -0.2522 
     17 C17        27.8663   -4.0779   -7.2124 C.3       12 UNK        -0.0967 
     18 CA         27.1451   -2.7742   -7.6351 C.3       5 UNK         0.0660 
     19 N          25.7740   -2.7194   -7.1208 N.am      5 UNK        -0.4015 
     20 C          24.8802   -1.7735   -7.4395 C.2       4 UNK         0.4946 
     21 O          25.1077   -0.8670   -8.2426 O.2       4 UNK        -0.5353 
     22 CA         23.5381   -1.7742   -6.6869 C.3       4 UNK         0.0277 
     23 CB         23.2332   -3.0851   -5.9254 C.3       4 UNK        -0.1981 
     24 N          23.4586   -0.6169   -5.7866 N.am      4 UNK        -0.4209 
     25 C          24.3102   -0.3132   -4.7943 C.2       3 UNK         0.4942 
     26 O          25.2743   -1.0180   -4.4821 O.2       3 UNK        -0.5208 
     27 CA         24.0920    1.0205   -4.0516 C.3       3 UNK         0.0250 
     28 CB         22.7308    1.7010   -4.3318 C.3       3 UNK        -0.1990 
     29 N          24.3253    0.8705   -2.6110 N.am      3 UNK        -0.4232 
     30 C          23.6224    0.1121   -1.7580 C.2       2 UNK         0.4993 
     31 O          22.6161   -0.5320   -2.0627 O.2       2 UNK        -0.5286 
     32 CA         24.1707    0.0266   -0.3252 C.3       2 UNK         0.0209 
     33 CB         23.0564   -0.1951    0.7146 C.3       2 UNK        -0.1931 
     34 N          25.1283   -1.0729   -0.2359 N.am      2 UNK        -0.4546 
     35 C          26.4036   -1.0232   -0.6455 C.2       1 UNK         0.5154 
     36 O          26.9324   -0.0007   -1.0842 O.2       1 UNK        -0.5181 
     37 C          27.9595   -1.5021   -7.2993 C.2       5 UNK         0.5014 
     38 O          28.7303   -1.0543   -8.1460 O.2       5 UNK        -0.5248 
     39 N          27.7274   -0.8930   -6.1249 N.am      6 UNK        -0.4434 
     40 CA         28.3761    0.3598   -5.7237 C.3       6 UNK         0.0363 
     41 CB         28.2933    0.5288   -4.1986 C.3       6 UNK        -0.1936 
     42 C          27.8362    1.6065   -6.4459 C.2       6 UNK         0.5081 
     43 O          28.4865    2.6507   -6.3924 O.2       6 UNK        -0.5248 
     44 N          26.6731    1.4945   -7.1016 N.am      7 UNK        -0.4718 
     45 CA         26.1523    2.5198   -8.0055 C.3       7 UNK         0.0273 
     46 CB         24.6180    2.5583   -7.9211 C.3       7 UNK        -0.1935 
     47 C          26.6226    2.2600   -9.4451 C.2       7 UNK         0.5018 
     48 O          26.9622    3.2119  -10.1486 O.2       7 UNK        -0.5186 
     49 N          26.6285    0.9839   -9.8572 N.am      8 UNK        -0.4240 
     50 CA         27.0108    0.5406  -11.1976 C.3       8 UNK         0.0235 
     51 CB         26.5572   -0.9136  -11.4031 C.3       8 UNK        -0.2000 
     52 C          28.5126    0.6810  -11.4992 C.2       8 UNK         0.4941 
     53 O          28.8553    1.0918  -12.6093 O.2       8 UNK        -0.5273 
     54 N          29.3748    0.3215  -10.5392 N.am      9 UNK        -0.4262 
     55 CA         30.8289    0.3069  -10.6884 C.3       9 UNK         0.0264 
     56 CB         31.3316   -1.1369  -10.5127 C.3       9 UNK        -0.1955 
     57 C          31.4826    1.2194   -9.6455 C.2       9 UNK         0.5031 
     58 O          31.0510    1.2509   -8.4917 O.2       9 UNK        -0.5390 
     59 N          32.5555    1.9027  -10.0587 N.am      10 UNK        -0.4204 
     60 CA         33.4306    2.6850   -9.1890 C.3       10 UNK         0.0237 
     61 CB         33.9428    3.9155   -9.9612 C.3       10 UNK        -0.1985 
     62 C          34.5737    1.7766   -8.7138 C.2       10 UNK         0.4970 
     63 O          35.6242    1.7267   -9.3564 O.2       10 UNK        -0.4914 
     64 N          34.3250    1.0340   -7.6295 N.am      11 UNK        -0.4285 
     65 CA         35.2709    0.0751   -7.0334 C.3       11 UNK         0.1007 
     66 C          36.5128    0.7017   -6.3295 C.2       11 UNK         0.5703 
     67 N          36.5516    2.0055   -6.0798 N.am      11 UNK        -0.7361 
     68 O          37.4650   -0.0099   -6.0180 O.2       11 UNK        -0.4986 
     69 C69        34.5431   -0.9608   -6.1353 C.3       12 UNK        -0.0947 
     70 S70        33.6912   -0.2185   -4.6996 S.3       12 UNK        -0.2240 
     71 C71        31.9441   -0.3581   -5.1824 C.3       12 UNK         0.0194 
     72 H72        25.1843   -3.9528    3.1047 H         1 UNK         0.0906 
     73 H73        25.5907   -5.1154    1.8405 H         1 UNK         0.0906 
     74 H74        26.7276   -4.8090    3.1543 H         1 UNK         0.0906 
     75 H75        26.2297   -4.1257   -0.0700 H         1 UNK         0.3140 
     76 H76        28.2001   -2.0409   -0.1407 H         1 UNK         0.1085 
     77 H77        27.9946   -2.2044   -2.5971 H         1 UNK         0.0836 
     78 H78        26.5178   -3.1148   -2.4612 H         1 UNK         0.0836 
     79 H79        30.2868   -3.0871   -1.3159 H         1 UNK         0.0731 
     80 H80        30.8002   -4.6995   -1.7426 H         1 UNK         0.0731 
     81 H81        31.1266   -1.4701   -2.8446 H         1 UNK         0.1312 
     82 H82        31.5275   -2.3419   -7.0255 H         1 UNK         0.1406 
     83 H83        30.0041   -5.3239   -4.3458 H         1 UNK         0.1631 
     84 H84        30.3179   -5.9062   -6.6050 H         1 UNK         0.0717 
     85 H85        31.5620   -5.0356   -7.4632 H         1 UNK         0.0717 
     86 H86        27.2054   -4.9334   -7.3607 H         1 UNK         0.0934 
     87 H87        28.0939   -4.0615   -6.1462 H         1 UNK         0.0934 
     88 H88        27.0469   -2.8000   -8.7218 H         1 UNK         0.0739 
     89 H89        25.5210   -3.3994   -6.4192 H         1 UNK         0.3093 
     90 H90        22.7639   -1.6412   -7.4441 H         1 UNK         0.0818 
     91 H91        22.2342   -3.0544   -5.4904 H         1 UNK         0.0819 
     92 H92        23.2605   -3.9464   -6.5944 H         1 UNK         0.0819 
     93 H93        23.9334   -3.2712   -5.1103 H         1 UNK         0.0819 
     94 H94        22.7122    0.0352   -5.9814 H         1 UNK         0.3041 
     95 H95        24.8725    1.6909   -4.4148 H         1 UNK         0.0784 
     96 H96        22.6236    1.9685   -5.3831 H         1 UNK         0.0793 
     97 H97        21.8878    1.0622   -4.0659 H         1 UNK         0.0793 
     98 H98        22.6333    2.6254   -3.7623 H         1 UNK         0.0793 
     99 H99        25.1897    1.2699   -2.2688 H         1 UNK         0.3024 
    100 H100       24.6719    0.9674   -0.0845 H         1 UNK         0.1171 
    101 H101       22.3119    0.6004    0.6616 H         1 UNK         0.0786 
    102 H102       23.4569   -0.1967    1.7285 H         1 UNK         0.0786 
    103 H103       22.5348   -1.1406    0.5600 H         1 UNK         0.0786 
    104 H104       24.7739   -1.9598    0.0912 H         1 UNK         0.2977 
    105 H105       27.0113   -1.2535   -5.5008 H         1 UNK         0.3127 
    106 H106       29.4278    0.2897   -5.9994 H         1 UNK         0.0770 
    107 H107       27.2637    0.5963   -3.8498 H         1 UNK         0.0814 
    108 H108       28.8033    1.4379   -3.8777 H         1 UNK         0.0814 
    109 H109       28.7702   -0.3020   -3.6821 H         1 UNK         0.0814 
    110 H110       26.2167    0.5913   -7.1309 H         1 UNK         0.2983 
    111 H111       26.5235    3.5037   -7.7094 H         1 UNK         0.0947 
    112 H112       24.2110    3.3088   -8.6000 H         1 UNK         0.0806 
    113 H113       24.2887    2.8217   -6.9167 H         1 UNK         0.0806 
    114 H114       24.1658    1.6024   -8.1856 H         1 UNK         0.0806 
    115 H115       26.2650    0.2714   -9.2300 H         1 UNK         0.3000 
    116 H116       26.4721    1.1638  -11.9149 H         1 UNK         0.0850 
    117 H117       26.7613   -1.2449  -12.4221 H         1 UNK         0.0810 
    118 H118       25.4861   -1.0254  -11.2328 H         1 UNK         0.0810 
    119 H119       27.0773   -1.5948  -10.7299 H         1 UNK         0.0810 
    120 H120       29.0313    0.0027   -9.6331 H         1 UNK         0.3040 
    121 H121       31.1175    0.6523  -11.6833 H         1 UNK         0.0766 
    122 H122       30.8958   -1.8012  -11.2590 H         1 UNK         0.0812 
    123 H123       31.0798   -1.5335   -9.5277 H         1 UNK         0.0812 
    124 H124       32.4156   -1.1927  -10.6200 H         1 UNK         0.0812 
    125 H125       32.8696    1.7833  -11.0118 H         1 UNK         0.3205 
    126 H126       32.8807    3.0434   -8.3156 H         1 UNK         0.0754 
    127 H127       34.6230    4.5057   -9.3457 H         1 UNK         0.0769 
    128 H128       33.1196    4.5689  -10.2512 H         1 UNK         0.0769 
    129 H129       34.4816    3.6366  -10.8678 H         1 UNK         0.0769 
    130 H130       33.4299    1.1204   -7.1704 H         1 UNK         0.2981 
    131 H131       35.6880   -0.4931   -7.8672 H         1 UNK         0.0541 
    132 H132       35.7745    2.5965   -6.3253 H         1 UNK         0.3459 
    133 H133       37.3633    2.3978   -5.6295 H         1 UNK         0.3459 
    134 H134       35.2485   -1.7055   -5.7626 H         1 UNK         0.0612 
    135 H135       33.8258   -1.5207   -6.7354 H         1 UNK         0.0612 
    136 H136       31.3687    0.3544   -4.5901 H         1 UNK         0.0624 
    137 H137       31.8233   -0.0592   -6.2243 H         1 UNK         0.0624 
@<TRIPOS>BOND
     1    1    2 1    
     2    1   72 1    
     3    1   73 1    
     4    1   74 1    
     5    2    3 2    
     6    2    4 am   BACKBONE|DICT|INTERRES
     7    4    5 1    
     8    4   75 1    
     9    5    6 1    
    10    5   35 1    
    11    5   76 1    
    12    6    7 1    
    13    6   77 1    
    14    6   78 1    
    15    7    8 1    
    16    8    9 1    
    17    8   79 1    
    18    8   80 1    
    19    9   10 ar   
    20    9   14 ar   
    21   10   11 ar   
    22   10   81 1    
    23   11   12 ar   
    24   11   71 1    
    25   12   13 ar   
    26   12   82 1    
    27   13   14 ar   
    28   13   15 1    
    29   14   83 1    
    30   15   16 1    
    31   15   84 1    
    32   15   85 1    
    33   16   17 1    
    34   17   18 1    
    35   17   86 1    
    36   17   87 1    
    37   18   19 1    
    38   18   37 1    
    39   18   88 1    
    40   19   20 am   BACKBONE|DICT|INTERRES
    41   19   89 1    
    42   20   21 2    
    43   20   22 1    
    44   22   23 1    
    45   22   24 1    
    46   22   90 1    
    47   23   91 1    
    48   23   92 1    
    49   23   93 1    
    50   24   25 am   BACKBONE|DICT|INTERRES
    51   24   94 1    
    52   25   26 2    
    53   25   27 1    
    54   27   28 1    
    55   27   29 1    
    56   27   95 1    
    57   28   96 1    
    58   28   97 1    
    59   28   98 1    
    60   29   30 am   BACKBONE|DICT|INTERRES
    61   29   99 1    
    62   30   31 2    
    63   30   32 1    
    64   32   33 1    
    65   32   34 1    
    66   32  100 1    
    67   33  101 1    
    68   33  102 1    
    69   33  103 1    
    70   34   35 am   BACKBONE|DICT|INTERRES
    71   34  104 1    
    72   35   36 2    
    73   37   38 2    
    74   37   39 am   BACKBONE|DICT|INTERRES
    75   39   40 1    
    76   39  105 1    
    77   40   41 1    
    78   40   42 1    
    79   40  106 1    
    80   41  107 1    
    81   41  108 1    
    82   41  109 1    
    83   42   43 2    
    84   42   44 am   BACKBONE|DICT|INTERRES
    85   44   45 1    
    86   44  110 1    
    87   45   46 1    
    88   45   47 1    
    89   45  111 1    
    90   46  112 1    
    91   46  113 1    
    92   46  114 1    
    93   47   48 2    
    94   47   49 am   BACKBONE|DICT|INTERRES
    95   49   50 1    
    96   49  115 1    
    97   50   51 1    
    98   50   52 1    
    99   50  116 1    
   100   51  117 1    
   101   51  118 1    
   102   51  119 1    
   103   52   53 2    
   104   52   54 am   BACKBONE|DICT|INTERRES
   105   54   55 1    
   106   54  120 1    
   107   55   56 1    
   108   55   57 1    
   109   55  121 1    
   110   56  122 1    
   111   56  123 1    
   112   56  124 1    
   113   57   58 2    
   114   57   59 am   BACKBONE|DICT|INTERRES
   115   59   60 1    
   116   59  125 1    
   117   60   61 1    
   118   60   62 1    
   119   60  126 1    
   120   61  127 1    
   121   61  128 1    
   122   61  129 1    
   123   62   63 2    
   124   62   64 am   BACKBONE|DICT|INTERRES
   125   64   65 1    
   126   64  130 1    
   127   65   66 1    
   128   65   69 1    
   129   65  131 1    
   130   66   67 am   BACKBONE|DICT|INTERRES
   131   66   68 2    
   132   67  132 1    
   133   67  133 1    
   134   69   70 1    
   135   69  134 1    
   136   69  135 1    
   137   70   71 1    
   138   71  136 1    
   139   71  137 1    
@<TRIPOS>SUBSTRUCTURE
     1 UNK         1 GROUP             0       ****    0 ROOT    
