@<TRIPOS>MOLECULE
3R137
137   139    1
SMALL
USER_CHARGES


@<TRIPOS>ATOM
      1 CA         29.5927    1.7652   -1.8817 C.3       0 UNK        -0.2020 
      2 C          29.2588    0.3049   -2.1449 C.2       0 UNK         0.4855 
      3 O          29.2119   -0.1162   -3.2996 O.2       0 UNK        -0.5197 
      4 N          29.0259   -0.4669   -1.0778 N.am      1 UNK        -0.4892 
      5 CA         28.5704   -1.8571   -1.1509 C.3       1 UNK         0.0835 
      6 C6         29.0723   -2.7028    0.0458 C.3       12 UNK        -0.0855 
      7 S7         30.8955   -2.7809    0.1354 S.3       12 UNK        -0.2931 
      8 C8         31.2522   -4.4193   -0.5781 C.3       12 UNK         0.0378 
      9 C9         31.0694   -4.4322   -2.0894 C.ar      12 UNK        -0.0802 
     10 C10        32.1067   -4.0104   -2.9266 C.ar      12 UNK        -0.0944 
     11 C11        31.9601   -4.0255   -4.3176 C.ar      12 UNK        -0.0787 
     12 C12        30.7497   -4.4746   -4.8617 C.ar      12 UNK        -0.0862 
     13 C13        29.6864   -4.8619   -4.0375 C.ar      12 UNK        -0.0733 
     14 C14        29.8656   -4.8640   -2.6516 C.ar      12 UNK        -0.0832 
     15 C15        28.3372   -5.2847   -4.6165 C.3       12 UNK         0.0240 
     16 S16        27.8404   -4.3997   -6.1371 S.3       12 UNK        -0.2522 
     17 C17        28.0556   -2.6411   -5.6894 C.3       12 UNK        -0.0967 
     18 CA         27.3846   -1.7228   -6.7353 C.3       5 UNK         0.0660 
     19 N          25.9295   -1.8772   -6.7638 N.am      5 UNK        -0.4015 
     20 C          25.1485   -1.5585   -7.8035 C.2       4 UNK         0.4946 
     21 O          25.5771   -1.1326   -8.8752 O.2       4 UNK        -0.5353 
     22 CA         23.6302   -1.7281   -7.6141 C.3       4 UNK         0.0277 
     23 CB         23.1929   -3.1409   -8.0328 C.3       4 UNK        -0.1981 
     24 N          23.1870   -1.4669   -6.2414 N.am      4 UNK        -0.4209 
     25 C          23.2089   -0.2597   -5.6586 C.2       3 UNK         0.4942 
     26 O          23.5641    0.7701   -6.2318 O.2       3 UNK        -0.5208 
     27 CA         22.8283   -0.2036   -4.1666 C.3       3 UNK         0.0250 
     28 CB         21.3021   -0.1302   -4.0007 C.3       3 UNK        -0.1990 
     29 N          23.3619   -1.3140   -3.3619 N.am      3 UNK        -0.4232 
     30 C          24.6601   -1.6380   -3.2808 C.2       2 UNK         0.4993 
     31 O          25.5369   -1.0791   -3.9402 O.2       2 UNK        -0.5286 
     32 CA         25.0439   -2.8159   -2.3684 C.3       2 UNK         0.0209 
     33 CB         24.7353   -4.1501   -3.0689 C.3       2 UNK        -0.1931 
     34 N          26.4724   -2.7782   -2.0339 N.am      2 UNK        -0.4546 
     35 C          27.0316   -1.8698   -1.2234 C.2       1 UNK         0.5154 
     36 O          26.3810   -1.0772   -0.5355 O.2       1 UNK        -0.5181 
     37 C          27.7731   -0.2475   -6.5360 C.2       5 UNK         0.5014 
     38 O          28.6936    0.2258   -7.2020 O.2       5 UNK        -0.5248 
     39 N          27.0349    0.4742   -5.6819 N.am      6 UNK        -0.4434 
     40 CA         27.1604    1.9188   -5.4836 C.3       6 UNK         0.0363 
     41 CB         26.2667    2.3613   -4.3153 C.3       6 UNK        -0.1936 
     42 C          26.8369    2.7077   -6.7639 C.2       6 UNK         0.5081 
     43 O          27.5806    3.6246   -7.1124 O.2       6 UNK        -0.5248 
     44 N          25.7833    2.2927   -7.4844 N.am      7 UNK        -0.4718 
     45 CA         25.4227    2.8084   -8.8111 C.3       7 UNK         0.0273 
     46 CB         24.0610    2.2342   -9.2316 C.3       7 UNK        -0.1935 
     47 C          26.4862    2.5267   -9.8911 C.2       7 UNK         0.5018 
     48 O          26.6246    3.3214  -10.8208 O.2       7 UNK        -0.5186 
     49 N          27.2457    1.4348   -9.7269 N.am      8 UNK        -0.4240 
     50 CA         28.4080    1.0687  -10.5418 C.3       8 UNK         0.0235 
     51 CB         28.5010   -0.4660  -10.6209 C.3       8 UNK        -0.2000 
     52 C          29.7239    1.6917  -10.0255 C.2       8 UNK         0.4941 
     53 O          30.7971    1.2332  -10.4204 O.2       8 UNK        -0.5273 
     54 N          29.6303    2.7147   -9.1611 N.am      9 UNK        -0.4262 
     55 CA         30.7229    3.5010   -8.5797 C.3       9 UNK         0.0264 
     56 CB         31.5000    4.2676   -9.6724 C.3       9 UNK        -0.1955 
     57 C          31.6383    2.6938   -7.6403 C.2       9 UNK         0.5031 
     58 O          32.8460    2.9406   -7.6087 O.2       9 UNK        -0.5390 
     59 N          31.0512    1.7547   -6.8816 N.am      10 UNK        -0.4204 
     60 CA         31.6832    0.9401   -5.8345 C.3       10 UNK         0.0237 
     61 CB         32.0532    1.8206   -4.6229 C.3       10 UNK        -0.1985 
     62 C          32.8709    0.1100   -6.3557 C.2       10 UNK         0.4970 
     63 O          33.9098    0.0356   -5.6968 O.2       10 UNK        -0.4914 
     64 N          32.6921   -0.4721   -7.5482 N.am      11 UNK        -0.4285 
     65 CA         33.6971   -1.2322   -8.3108 C.3       11 UNK         0.1007 
     66 C          34.8568   -0.3674   -8.8958 C.2       11 UNK         0.5703 
     67 N          34.8099    0.9593   -8.8354 N.am      11 UNK        -0.7361 
     68 O          35.8099   -0.9094   -9.4512 O.2       11 UNK        -0.4986 
     69 C69        34.2216   -2.5031   -7.5739 C.3       12 UNK        -0.0947 
     70 S70        32.8866   -3.6007   -6.9857 S.3       12 UNK        -0.2240 
     71 C71        33.1218   -3.5121   -5.1735 C.3       12 UNK         0.0194 
     72 H72        29.1472    2.3988   -2.6482 H         1 UNK         0.0906 
     73 H73        30.6718    1.9129   -1.8973 H         1 UNK         0.0906 
     74 H74        29.2161    2.0951   -0.9137 H         1 UNK         0.0906 
     75 H75        29.0519   -0.0659   -0.1513 H         1 UNK         0.3140 
     76 H76        28.9597   -2.3014   -2.0692 H         1 UNK         0.1085 
     77 H77        28.6721   -3.7171   -0.0011 H         1 UNK         0.0836 
     78 H78        28.7084   -2.2841    0.9862 H         1 UNK         0.0836 
     79 H79        32.2813   -4.6886   -0.3352 H         1 UNK         0.0731 
     80 H80        30.6250   -5.1760   -0.1041 H         1 UNK         0.0731 
     81 H81        33.0329   -3.6610   -2.4903 H         1 UNK         0.1312 
     82 H82        30.6093   -4.4972   -5.9317 H         1 UNK         0.1406 
     83 H83        29.0624   -5.1913   -2.0056 H         1 UNK         0.1631 
     84 H84        27.5498   -5.1516   -3.8744 H         1 UNK         0.0717 
     85 H85        28.3735   -6.3525   -4.8351 H         1 UNK         0.0717 
     86 H86        27.6583   -2.4596   -4.6904 H         1 UNK         0.0934 
     87 H87        29.1240   -2.4244   -5.6346 H         1 UNK         0.0934 
     88 H88        27.7686   -2.0129   -7.7158 H         1 UNK         0.0739 
     89 H89        25.4972   -2.1458   -5.8917 H         1 UNK         0.3093 
     90 H90        23.1352   -1.0090   -8.2704 H         1 UNK         0.0818 
     91 H91        23.4900   -3.3507   -9.0615 H         1 UNK         0.0819 
     92 H92        23.6422   -3.9088   -7.4016 H         1 UNK         0.0819 
     93 H93        22.1098   -3.2533   -7.9816 H         1 UNK         0.0819 
     94 H94        22.8742   -2.2584   -5.6983 H         1 UNK         0.3041 
     95 H95        23.2557    0.7166   -3.7629 H         1 UNK         0.0784 
     96 H96        20.8865    0.6976   -4.5775 H         1 UNK         0.0793 
     97 H97        20.8122   -1.0432   -4.3415 H         1 UNK         0.0793 
     98 H98        21.0231    0.0327   -2.9595 H         1 UNK         0.0793 
     99 H99        22.6940   -1.8302   -2.8069 H         1 UNK         0.3024 
    100 H100       24.4650   -2.7474   -1.4444 H         1 UNK         0.1171 
    101 H101       23.6675   -4.2532   -3.2661 H         1 UNK         0.0786 
    102 H102       25.2508   -4.2353   -4.0265 H         1 UNK         0.0786 
    103 H103       25.0290   -5.0001   -2.4525 H         1 UNK         0.0786 
    104 H104       27.0726   -3.3785   -2.5765 H         1 UNK         0.2977 
    105 H105       26.3552   -0.0155   -5.1000 H         1 UNK         0.3127 
    106 H106       28.1991    2.1236   -5.2155 H         1 UNK         0.0770 
    107 H107       25.2112    2.1874   -4.5254 H         1 UNK         0.0814 
    108 H108       26.3896    3.4258   -4.1124 H         1 UNK         0.0814 
    109 H109       26.5176    1.8228   -3.4009 H         1 UNK         0.0814 
    110 H110       25.1793    1.5742   -7.0942 H         1 UNK         0.2983 
    111 H111       25.3250    3.8929   -8.7275 H         1 UNK         0.0947 
    112 H112       24.0922    1.1482   -9.3212 H         1 UNK         0.0806 
    113 H113       23.7502    2.6329  -10.1982 H         1 UNK         0.0806 
    114 H114       23.2834    2.4880   -8.5108 H         1 UNK         0.0806 
    115 H115       27.0500    0.8319   -8.9380 H         1 UNK         0.3000 
    116 H116       28.2597    1.4443  -11.5563 H         1 UNK         0.0850 
    117 H117       29.2792   -0.7771  -11.3188 H         1 UNK         0.0810 
    118 H118       27.5642   -0.9040  -10.9662 H         1 UNK         0.0810 
    119 H119       28.7389   -0.9057   -9.6528 H         1 UNK         0.0810 
    120 H120       28.7058    2.9789   -8.8403 H         1 UNK         0.3040 
    121 H121       30.2413    4.2466   -7.9454 H         1 UNK         0.0766 
    122 H122       32.0722    3.5942  -10.3113 H         1 UNK         0.0812 
    123 H123       32.2068    4.9700   -9.2291 H         1 UNK         0.0812 
    124 H124       30.8279    4.8444  -10.3076 H         1 UNK         0.0812 
    125 H125       30.0741    1.5288   -7.0588 H         1 UNK         0.3205 
    126 H126       30.9297    0.2233   -5.5042 H         1 UNK         0.0754 
    127 H127       32.3742    1.2074   -3.7800 H         1 UNK         0.0769 
    128 H128       31.1996    2.4107   -4.2913 H         1 UNK         0.0769 
    129 H129       32.8657    2.5097   -4.8558 H         1 UNK         0.0769 
    130 H130       31.8149   -0.3180   -8.0245 H         1 UNK         0.2981 
    131 H131       33.1585   -1.5822   -9.1919 H         1 UNK         0.0541 
    132 H132       35.5664    1.4920   -9.2334 H         1 UNK         0.3459 
    133 H133       34.0460    1.4422   -8.3760 H         1 UNK         0.3459 
    134 H134       34.8682   -2.2263   -6.7400 H         1 UNK         0.0612 
    135 H135       34.8446   -3.0956   -8.2458 H         1 UNK         0.0612 
    136 H136       34.0256   -4.0673   -4.9190 H         1 UNK         0.0624 
    137 H137       33.3054   -2.4748   -4.8945 H         1 UNK         0.0624 
@<TRIPOS>BOND
     1    1    2 1    
     2    1   72 1    
     3    1   73 1    
     4    1   74 1    
     5    2    3 2    
     6    2    4 am   BACKBONE|DICT|INTERRES
     7    4    5 1    
     8    4   75 1    
     9    5    6 1    
    10    5   35 1    
    11    5   76 1    
    12    6    7 1    
    13    6   77 1    
    14    6   78 1    
    15    7    8 1    
    16    8    9 1    
    17    8   79 1    
    18    8   80 1    
    19    9   10 ar   
    20    9   14 ar   
    21   10   11 ar   
    22   10   81 1    
    23   11   12 ar   
    24   11   71 1    
    25   12   13 ar   
    26   12   82 1    
    27   13   14 ar   
    28   13   15 1    
    29   14   83 1    
    30   15   16 1    
    31   15   84 1    
    32   15   85 1    
    33   16   17 1    
    34   17   18 1    
    35   17   86 1    
    36   17   87 1    
    37   18   19 1    
    38   18   37 1    
    39   18   88 1    
    40   19   20 am   BACKBONE|DICT|INTERRES
    41   19   89 1    
    42   20   21 2    
    43   20   22 1    
    44   22   23 1    
    45   22   24 1    
    46   22   90 1    
    47   23   91 1    
    48   23   92 1    
    49   23   93 1    
    50   24   25 am   BACKBONE|DICT|INTERRES
    51   24   94 1    
    52   25   26 2    
    53   25   27 1    
    54   27   28 1    
    55   27   29 1    
    56   27   95 1    
    57   28   96 1    
    58   28   97 1    
    59   28   98 1    
    60   29   30 am   BACKBONE|DICT|INTERRES
    61   29   99 1    
    62   30   31 2    
    63   30   32 1    
    64   32   33 1    
    65   32   34 1    
    66   32  100 1    
    67   33  101 1    
    68   33  102 1    
    69   33  103 1    
    70   34   35 am   BACKBONE|DICT|INTERRES
    71   34  104 1    
    72   35   36 2    
    73   37   38 2    
    74   37   39 am   BACKBONE|DICT|INTERRES
    75   39   40 1    
    76   39  105 1    
    77   40   41 1    
    78   40   42 1    
    79   40  106 1    
    80   41  107 1    
    81   41  108 1    
    82   41  109 1    
    83   42   43 2    
    84   42   44 am   BACKBONE|DICT|INTERRES
    85   44   45 1    
    86   44  110 1    
    87   45   46 1    
    88   45   47 1    
    89   45  111 1    
    90   46  112 1    
    91   46  113 1    
    92   46  114 1    
    93   47   48 2    
    94   47   49 am   BACKBONE|DICT|INTERRES
    95   49   50 1    
    96   49  115 1    
    97   50   51 1    
    98   50   52 1    
    99   50  116 1    
   100   51  117 1    
   101   51  118 1    
   102   51  119 1    
   103   52   53 2    
   104   52   54 am   BACKBONE|DICT|INTERRES
   105   54   55 1    
   106   54  120 1    
   107   55   56 1    
   108   55   57 1    
   109   55  121 1    
   110   56  122 1    
   111   56  123 1    
   112   56  124 1    
   113   57   58 2    
   114   57   59 am   BACKBONE|DICT|INTERRES
   115   59   60 1    
   116   59  125 1    
   117   60   61 1    
   118   60   62 1    
   119   60  126 1    
   120   61  127 1    
   121   61  128 1    
   122   61  129 1    
   123   62   63 2    
   124   62   64 am   BACKBONE|DICT|INTERRES
   125   64   65 1    
   126   64  130 1    
   127   65   66 1    
   128   65   69 1    
   129   65  131 1    
   130   66   67 am   BACKBONE|DICT|INTERRES
   131   66   68 2    
   132   67  132 1    
   133   67  133 1    
   134   69   70 1    
   135   69  134 1    
   136   69  135 1    
   137   70   71 1    
   138   71  136 1    
   139   71  137 1    
@<TRIPOS>SUBSTRUCTURE
     1 UNK         1 GROUP             0       ****    0 ROOT    
