@<TRIPOS>MOLECULE
3R137
137   139    1
SMALL
USER_CHARGES


@<TRIPOS>ATOM
      1 CA         26.5317   -5.5369    1.2276 C.3       0 UNK        -0.2020 
      2 C          26.7485   -4.7560   -0.0601 C.2       0 UNK         0.4855 
      3 O          26.3249   -3.6043   -0.1552 O.2       0 UNK        -0.5197 
      4 N          27.4145   -5.3702   -1.0447 N.am      1 UNK        -0.4892 
      5 CA         27.6750   -4.7928   -2.3679 C.3       1 UNK         0.0835 
      6 C6         28.8238   -5.5302   -3.1037 C.3       12 UNK        -0.0855 
      7 S7         30.3719   -5.6204   -2.1390 S.3       12 UNK        -0.2931 
      8 C8         31.5122   -4.5915   -3.1311 C.3       12 UNK         0.0378 
      9 C9         31.4452   -3.0795   -2.8973 C.ar      12 UNK        -0.0802 
     10 C10        32.2416   -2.2591   -3.7042 C.ar      12 UNK        -0.0944 
     11 C11        32.2782   -0.8766   -3.5060 C.ar      12 UNK        -0.0787 
     12 C12        31.5084   -0.3083   -2.4905 C.ar      12 UNK        -0.0862 
     13 C13        30.6792   -1.1031   -1.6959 C.ar      12 UNK        -0.0733 
     14 C14        30.6598   -2.4875   -1.8962 C.ar      12 UNK        -0.0832 
     15 C15        29.8254   -0.4717   -0.6037 C.3       12 UNK         0.0240 
     16 S16        28.2113    0.1025   -1.2308 S.3       12 UNK        -0.2522 
     17 C17        28.6593    1.6467   -2.0973 C.3       12 UNK        -0.0967 
     18 CA         28.3236    1.5766   -3.6104 C.3       5 UNK         0.0660 
     19 N          26.8736    1.6445   -3.8256 N.am      5 UNK        -0.4015 
     20 C          26.2146    1.2236   -4.9104 C.2       4 UNK         0.4946 
     21 O          26.7475    0.6528   -5.8682 O.2       4 UNK        -0.5353 
     22 CA         24.7235    1.5578   -4.9697 C.3       4 UNK         0.0277 
     23 CB         24.4518    2.6730   -5.9952 C.3       4 UNK        -0.1981 
     24 N          24.0032    0.3472   -5.3356 N.am      4 UNK        -0.4209 
     25 C          22.7588    0.0402   -4.9503 C.2       3 UNK         0.4942 
     26 O          22.0288    0.8070   -4.3203 O.2       3 UNK        -0.5208 
     27 CA         22.2315   -1.3625   -5.3148 C.3       3 UNK         0.0250 
     28 CB         21.3194   -1.2832   -6.5503 C.3       3 UNK        -0.1990 
     29 N          23.2808   -2.3599   -5.5591 N.am      3 UNK        -0.4232 
     30 C          24.1845   -2.7746   -4.6590 C.2       2 UNK         0.4993 
     31 O          24.2079   -2.3849   -3.4895 O.2       2 UNK        -0.5286 
     32 CA         25.2481   -3.7621   -5.1735 C.3       2 UNK         0.0209 
     33 CB         25.8388   -3.3111   -6.5220 C.3       2 UNK        -0.1931 
     34 N          26.3493   -3.9022   -4.2187 N.am      2 UNK        -0.4546 
     35 C          26.4012   -4.8112   -3.2390 C.2       1 UNK         0.5154 
     36 O          25.5342   -5.6713   -3.0543 O.2       1 UNK        -0.5181 
     37 C          29.0289    2.6792   -4.4335 C.2       5 UNK         0.5014 
     38 O          29.6676    3.5690   -3.8678 O.2       5 UNK        -0.5248 
     39 N          28.8563    2.6166   -5.7573 N.am      6 UNK        -0.4434 
     40 CA         29.3697    3.5507   -6.7495 C.3       6 UNK         0.0363 
     41 CB         28.5806    4.8800   -6.7010 C.3       6 UNK        -0.1936 
     42 C          29.3428    2.8446   -8.1127 C.2       6 UNK         0.5081 
     43 O          30.0212    1.8300   -8.2767 O.2       6 UNK        -0.5248 
     44 N          28.5656    3.3735   -9.0672 N.am      7 UNK        -0.4718 
     45 CA         28.4762    2.8878  -10.4472 C.3       7 UNK         0.0273 
     46 CB         27.6610    3.8846  -11.2864 C.3       7 UNK        -0.1935 
     47 C          27.8972    1.4698  -10.5853 C.2       7 UNK         0.5018 
     48 O          28.3588    0.7237  -11.4482 O.2       7 UNK        -0.5186 
     49 N          26.9191    1.1147   -9.7378 N.am      8 UNK        -0.4240 
     50 CA         26.2845   -0.2094   -9.7324 C.3       8 UNK         0.0235 
     51 CB         24.9892   -0.1756   -8.9056 C.3       8 UNK        -0.2000 
     52 C          27.2344   -1.3095   -9.2317 C.2       8 UNK         0.4941 
     53 O          27.3005   -2.3777   -9.8397 O.2       8 UNK        -0.5273 
     54 N          27.9762   -1.0122   -8.1553 N.am      9 UNK        -0.4262 
     55 CA         29.0417   -1.8620   -7.6132 C.3       9 UNK         0.0264 
     56 CB         29.3243   -1.4392   -6.1632 C.3       9 UNK        -0.1955 
     57 C          30.3320   -1.8462   -8.4587 C.2       9 UNK         0.5031 
     58 O          31.1840   -2.7130   -8.2590 O.2       9 UNK        -0.5390 
     59 N          30.4422   -0.8796   -9.3827 N.am      10 UNK        -0.4204 
     60 CA         31.5507   -0.6228  -10.3064 C.3       10 UNK         0.0237 
     61 CB         31.7268   -1.7882  -11.3035 C.3       10 UNK        -0.1985 
     62 C          32.8458   -0.2455   -9.5665 C.2       10 UNK         0.4970 
     63 O          33.9099   -0.7951   -9.8588 O.2       10 UNK        -0.4914 
     64 N          32.7247    0.6879   -8.6142 N.am      11 UNK        -0.4285 
     65 CA         33.8316    1.1654   -7.7676 C.3       11 UNK         0.1007 
     66 C          34.8926    2.0371   -8.5010 C.2       11 UNK         0.5703 
     67 N          34.6306    2.5360   -9.7036 N.am      11 UNK        -0.7361 
     68 O          35.9774    2.2597   -7.9685 O.2       11 UNK        -0.4986 
     69 C69        33.3219    1.8876   -6.4936 C.3       12 UNK        -0.0947 
     70 S70        32.0938    0.9151   -5.5679 S.3       12 UNK        -0.2240 
     71 C71        33.1371    0.0143   -4.3886 C.3       12 UNK         0.0194 
     72 H72        26.9796   -5.0070    2.0679 H         1 UNK         0.0906 
     73 H73        25.4655   -5.6478    1.4236 H         1 UNK         0.0906 
     74 H74        26.9732   -6.5323    1.1809 H         1 UNK         0.0906 
     75 H75        27.7317   -6.3206   -0.9176 H         1 UNK         0.3140 
     76 H76        27.9642   -3.7489   -2.2282 H         1 UNK         0.1085 
     77 H77        29.0269   -5.0510   -4.0634 H         1 UNK         0.0836 
     78 H78        28.5274   -6.5543   -3.3407 H         1 UNK         0.0836 
     79 H79        31.3625   -4.8058   -4.1905 H         1 UNK         0.0731 
     80 H80        32.5275   -4.9171   -2.9002 H         1 UNK         0.0731 
     81 H81        32.8449   -2.7006   -4.4861 H         1 UNK         0.1312 
     82 H82        31.5552    0.7594   -2.3346 H         1 UNK         0.1406 
     83 H83        30.0406   -3.0945   -1.2520 H         1 UNK         0.1631 
     84 H84        30.3578    0.3576   -0.1354 H         1 UNK         0.0717 
     85 H85        29.6469   -1.1980    0.1908 H         1 UNK         0.0717 
     86 H86        28.1326    2.4776   -1.6245 H         1 UNK         0.0934 
     87 H87        29.7154    1.8543   -1.9327 H         1 UNK         0.0934 
     88 H88        28.6927    0.6223   -3.9930 H         1 UNK         0.0739 
     89 H89        26.3529    2.1184   -3.1024 H         1 UNK         0.3093 
     90 H90        24.3941    1.8905   -3.9826 H         1 UNK         0.0818 
     91 H91        24.9966    3.5821   -5.7375 H         1 UNK         0.0819 
     92 H92        24.7578    2.3831   -7.0008 H         1 UNK         0.0819 
     93 H93        23.3928    2.9288   -6.0300 H         1 UNK         0.0819 
     94 H94        24.5573   -0.3478   -5.8158 H         1 UNK         0.3041 
     95 H95        21.6357   -1.7122   -4.4690 H         1 UNK         0.0784 
     96 H96        20.5074   -0.5720   -6.3911 H         1 UNK         0.0793 
     97 H97        21.8667   -0.9585   -7.4365 H         1 UNK         0.0793 
     98 H98        20.8619   -2.2480   -6.7706 H         1 UNK         0.0793 
     99 H99        23.3212   -2.7430   -6.4924 H         1 UNK         0.3024 
    100 H100       24.7596   -4.7294   -5.3143 H         1 UNK         0.1171 
    101 H101       26.2201   -2.2916   -6.4652 H         1 UNK         0.0786 
    102 H102       26.6578   -3.9604   -6.8314 H         1 UNK         0.0786 
    103 H103       25.0995   -3.3433   -7.3226 H         1 UNK         0.0786 
    104 H104       27.0777   -3.2062   -4.2757 H         1 UNK         0.2977 
    105 H105       28.3061    1.8430   -6.1191 H         1 UNK         0.3127 
    106 H106       30.4178    3.7566   -6.5233 H         1 UNK         0.0770 
    107 H107       28.9378    5.5825   -7.4553 H         1 UNK         0.0814 
    108 H108       28.7016    5.3734   -5.7366 H         1 UNK         0.0814 
    109 H109       27.5117    4.7279   -6.8561 H         1 UNK         0.0814 
    110 H110       28.0379    4.2056   -8.8455 H         1 UNK         0.2983 
    111 H111       29.4918    2.8588  -10.8488 H         1 UNK         0.0947 
    112 H112       27.5977    3.5594  -12.3260 H         1 UNK         0.0806 
    113 H113       28.1211    4.8730  -11.2873 H         1 UNK         0.0806 
    114 H114       26.6407    3.9884  -10.9151 H         1 UNK         0.0806 
    115 H115       26.6012    1.7881   -9.0564 H         1 UNK         0.3000 
    116 H116       26.0150   -0.4550  -10.7623 H         1 UNK         0.0850 
    117 H117       24.2817    0.5516   -9.3041 H         1 UNK         0.0810 
    118 H118       25.1822    0.0801   -7.8664 H         1 UNK         0.0810 
    119 H119       24.4943   -1.1476   -8.9165 H         1 UNK         0.0810 
    120 H120       27.7967   -0.1441   -7.6666 H         1 UNK         0.3040 
    121 H121       28.6888   -2.8946   -7.6014 H         1 UNK         0.0766 
    122 H122       30.1440   -2.0165   -5.7340 H         1 UNK         0.0812 
    123 H123       28.4536   -1.5887   -5.5258 H         1 UNK         0.0812 
    124 H124       29.5991   -0.3871   -6.1065 H         1 UNK         0.0812 
    125 H125       29.7073   -0.1847   -9.3976 H         1 UNK         0.3205 
    126 H126       31.2633    0.2580  -10.8825 H         1 UNK         0.0754 
    127 H127       32.4701   -1.5425  -12.0629 H         1 UNK         0.0769 
    128 H128       30.7935   -2.0071  -11.8225 H         1 UNK         0.0769 
    129 H129       32.0581   -2.7016  -10.8085 H         1 UNK         0.0769 
    130 H130       31.8073    1.0808   -8.4198 H         1 UNK         0.2981 
    131 H131       34.3688    0.2764   -7.4318 H         1 UNK         0.0541 
    132 H132       33.7440    2.3599  -10.1470 H         1 UNK         0.3459 
    133 H133       35.3280    3.0950  -10.1692 H         1 UNK         0.3459 
    134 H134       32.8528    2.8358   -6.7619 H         1 UNK         0.0612 
    135 H135       34.1505    2.1348   -5.8274 H         1 UNK         0.0612 
    136 H136       33.6906    0.7239   -3.7718 H         1 UNK         0.0624 
    137 H137       33.8753   -0.5749   -4.9347 H         1 UNK         0.0624 
@<TRIPOS>BOND
     1    1    2 1    
     2    1   72 1    
     3    1   73 1    
     4    1   74 1    
     5    2    3 2    
     6    2    4 am   BACKBONE|DICT|INTERRES
     7    4    5 1    
     8    4   75 1    
     9    5    6 1    
    10    5   35 1    
    11    5   76 1    
    12    6    7 1    
    13    6   77 1    
    14    6   78 1    
    15    7    8 1    
    16    8    9 1    
    17    8   79 1    
    18    8   80 1    
    19    9   10 ar   
    20    9   14 ar   
    21   10   11 ar   
    22   10   81 1    
    23   11   12 ar   
    24   11   71 1    
    25   12   13 ar   
    26   12   82 1    
    27   13   14 ar   
    28   13   15 1    
    29   14   83 1    
    30   15   16 1    
    31   15   84 1    
    32   15   85 1    
    33   16   17 1    
    34   17   18 1    
    35   17   86 1    
    36   17   87 1    
    37   18   19 1    
    38   18   37 1    
    39   18   88 1    
    40   19   20 am   BACKBONE|DICT|INTERRES
    41   19   89 1    
    42   20   21 2    
    43   20   22 1    
    44   22   23 1    
    45   22   24 1    
    46   22   90 1    
    47   23   91 1    
    48   23   92 1    
    49   23   93 1    
    50   24   25 am   BACKBONE|DICT|INTERRES
    51   24   94 1    
    52   25   26 2    
    53   25   27 1    
    54   27   28 1    
    55   27   29 1    
    56   27   95 1    
    57   28   96 1    
    58   28   97 1    
    59   28   98 1    
    60   29   30 am   BACKBONE|DICT|INTERRES
    61   29   99 1    
    62   30   31 2    
    63   30   32 1    
    64   32   33 1    
    65   32   34 1    
    66   32  100 1    
    67   33  101 1    
    68   33  102 1    
    69   33  103 1    
    70   34   35 am   BACKBONE|DICT|INTERRES
    71   34  104 1    
    72   35   36 2    
    73   37   38 2    
    74   37   39 am   BACKBONE|DICT|INTERRES
    75   39   40 1    
    76   39  105 1    
    77   40   41 1    
    78   40   42 1    
    79   40  106 1    
    80   41  107 1    
    81   41  108 1    
    82   41  109 1    
    83   42   43 2    
    84   42   44 am   BACKBONE|DICT|INTERRES
    85   44   45 1    
    86   44  110 1    
    87   45   46 1    
    88   45   47 1    
    89   45  111 1    
    90   46  112 1    
    91   46  113 1    
    92   46  114 1    
    93   47   48 2    
    94   47   49 am   BACKBONE|DICT|INTERRES
    95   49   50 1    
    96   49  115 1    
    97   50   51 1    
    98   50   52 1    
    99   50  116 1    
   100   51  117 1    
   101   51  118 1    
   102   51  119 1    
   103   52   53 2    
   104   52   54 am   BACKBONE|DICT|INTERRES
   105   54   55 1    
   106   54  120 1    
   107   55   56 1    
   108   55   57 1    
   109   55  121 1    
   110   56  122 1    
   111   56  123 1    
   112   56  124 1    
   113   57   58 2    
   114   57   59 am   BACKBONE|DICT|INTERRES
   115   59   60 1    
   116   59  125 1    
   117   60   61 1    
   118   60   62 1    
   119   60  126 1    
   120   61  127 1    
   121   61  128 1    
   122   61  129 1    
   123   62   63 2    
   124   62   64 am   BACKBONE|DICT|INTERRES
   125   64   65 1    
   126   64  130 1    
   127   65   66 1    
   128   65   69 1    
   129   65  131 1    
   130   66   67 am   BACKBONE|DICT|INTERRES
   131   66   68 2    
   132   67  132 1    
   133   67  133 1    
   134   69   70 1    
   135   69  134 1    
   136   69  135 1    
   137   70   71 1    
   138   71  136 1    
   139   71  137 1    
@<TRIPOS>SUBSTRUCTURE
     1 UNK         1 GROUP             0       ****    0 ROOT    
