@<TRIPOS>MOLECULE
3R137
137   139    1
SMALL
USER_CHARGES


@<TRIPOS>ATOM
      1 CA         30.8541    1.0146   -2.3211 C.3       0 UNK        -0.2020 
      2 C          29.9844   -0.2111   -2.5443 C.2       0 UNK         0.4855 
      3 O          29.3447   -0.3225   -3.5872 O.2       0 UNK        -0.5197 
      4 N          29.9615   -1.1338   -1.5754 N.am      1 UNK        -0.4892 
      5 CA         29.0950   -2.3178   -1.5821 C.3       1 UNK         0.0835 
      6 C6         29.5584   -3.3938   -0.5659 C.3       12 UNK        -0.0855 
      7 S7         31.3261   -3.8347   -0.7125 S.3       12 UNK        -0.2931 
      8 C8         31.2734   -5.3890   -1.6591 C.3       12 UNK         0.0378 
      9 C9         31.0195   -5.1425   -3.1387 C.ar      12 UNK        -0.0802 
     10 C10        32.0389   -4.6261   -3.9463 C.ar      12 UNK        -0.0944 
     11 C11        31.8203   -4.4023   -5.3088 C.ar      12 UNK        -0.0787 
     12 C12        30.5755   -4.7082   -5.8628 C.ar      12 UNK        -0.0862 
     13 C13        29.5440   -5.2088   -5.0640 C.ar      12 UNK        -0.0733 
     14 C14        29.7741   -5.4359   -3.7035 C.ar      12 UNK        -0.0832 
     15 C15        28.1747   -5.4747   -5.6733 C.3       12 UNK         0.0240 
     16 S16        26.9172   -4.3049   -5.0656 S.3       12 UNK        -0.2522 
     17 C17        27.6245   -2.6830   -5.5181 C.3       12 UNK        -0.0967 
     18 CA         26.8425   -1.9460   -6.6310 C.3       5 UNK         0.0660 
     19 N          25.4142   -1.8028   -6.3449 N.am      5 UNK        -0.4015 
     20 C          24.4791   -1.5104   -7.2599 C.2       4 UNK         0.4946 
     21 O          24.7092   -1.4047   -8.4645 O.2       4 UNK        -0.5353 
     22 CA         23.0428   -1.2837   -6.7528 C.3       4 UNK         0.0277 
     23 CB         22.2412   -2.5939   -6.8139 C.3       4 UNK        -0.1981 
     24 N          22.9850   -0.7433   -5.3921 N.am      4 UNK        -0.4209 
     25 C          23.3836    0.4892   -5.0449 C.2       3 UNK         0.4942 
     26 O          23.7912    1.3290   -5.8466 O.2       3 UNK        -0.5208 
     27 CA         23.3867    0.8125   -3.5379 C.3       3 UNK         0.0250 
     28 CB         22.0010    1.3004   -3.0863 C.3       3 UNK        -0.1990 
     29 N          23.8166   -0.3126   -2.6933 N.am      3 UNK        -0.4232 
     30 C          24.9982   -0.9340   -2.8136 C.2       2 UNK         0.4993 
     31 O          25.8364   -0.6195   -3.6599 O.2       2 UNK        -0.5286 
     32 CA         25.2546   -2.1440   -1.8976 C.3       2 UNK         0.0209 
     33 CB         24.3878   -3.3402   -2.3282 C.3       2 UNK        -0.1931 
     34 N          26.6660   -2.5427   -1.9398 N.am      2 UNK        -0.4546 
     35 C          27.6390   -1.8936   -1.2879 C.2       1 UNK         0.5154 
     36 O          27.4210   -1.0070   -0.4561 O.2       1 UNK        -0.5181 
     37 C          27.4596   -0.5606   -6.8810 C.2       5 UNK         0.5014 
     38 O          28.0983   -0.3630   -7.9132 O.2       5 UNK        -0.5248 
     39 N          27.2068    0.3788   -5.9568 N.am      6 UNK        -0.4434 
     40 CA         27.6810    1.7650   -5.9943 C.3       6 UNK         0.0363 
     41 CB         27.2378    2.4838   -4.7105 C.3       6 UNK        -0.1936 
     42 C          27.2150    2.5415   -7.2380 C.2       6 UNK         0.5081 
     43 O          27.9570    3.3829   -7.7452 O.2       6 UNK        -0.5248 
     44 N          26.0040    2.2329   -7.7213 N.am      7 UNK        -0.4718 
     45 CA         25.4538    2.7503   -8.9745 C.3       7 UNK         0.0273 
     46 CB         23.9462    2.4532   -9.0184 C.3       7 UNK        -0.1935 
     47 C          26.1445    2.1855  -10.2306 C.2       7 UNK         0.5018 
     48 O          26.1039    2.8411  -11.2727 O.2       7 UNK        -0.5186 
     49 N          26.7405    0.9892  -10.1289 N.am      8 UNK        -0.4240 
     50 CA         27.4060    0.3000  -11.2336 C.3       8 UNK         0.0235 
     51 CB         27.1966   -1.2179  -11.0995 C.3       8 UNK        -0.2000 
     52 C          28.9013    0.6391  -11.3116 C.2       8 UNK         0.4941 
     53 O          29.4011    0.8519  -12.4177 O.2       8 UNK        -0.5273 
     54 N          29.5945    0.6810  -10.1655 N.am      9 UNK        -0.4262 
     55 CA         31.0305    0.9460  -10.0822 C.3       9 UNK         0.0264 
     56 CB         31.8127   -0.3640  -10.2905 C.3       9 UNK        -0.1955 
     57 C          31.3838    1.5720   -8.7299 C.2       9 UNK         0.5031 
     58 O          30.7428    1.2718   -7.7220 O.2       9 UNK        -0.5390 
     59 N          32.4409    2.3933   -8.7163 N.am      10 UNK        -0.4204 
     60 CA         32.9897    3.0399   -7.5215 C.3       10 UNK         0.0237 
     61 CB         33.7473    4.3126   -7.9464 C.3       10 UNK        -0.1985 
     62 C          33.8677    2.0685   -6.7075 C.2       10 UNK         0.4970 
     63 O          35.0773    2.2778   -6.5906 O.2       10 UNK        -0.4914 
     64 N          33.2431    1.0057   -6.1894 N.am      11 UNK        -0.4285 
     65 CA         33.8587   -0.0208   -5.3354 C.3       11 UNK         0.1007 
     66 C          34.3838    0.5339   -3.9807 C.2       11 UNK         0.5703 
     67 N          35.3326   -0.1548   -3.3595 N.am      11 UNK        -0.7361 
     68 O          33.9284    1.5573   -3.4735 O.2       11 UNK        -0.4986 
     69 C69        32.8883   -1.2100   -5.1157 C.3       12 UNK        -0.0947 
     70 S70        32.5537   -2.1054   -6.6689 S.3       12 UNK        -0.2240 
     71 C71        32.9173   -3.8248   -6.1914 C.3       12 UNK         0.0194 
     72 H72        31.7054    0.7920   -1.6776 H         1 UNK         0.0906 
     73 H73        31.2373    1.3820   -3.2729 H         1 UNK         0.0906 
     74 H74        30.2692    1.8113   -1.8621 H         1 UNK         0.0906 
     75 H75        30.5003   -0.9947   -0.7329 H         1 UNK         0.3140 
     76 H76        29.1351   -2.7526   -2.5837 H         1 UNK         0.1085 
     77 H77        29.4006   -3.0416    0.4556 H         1 UNK         0.0836 
     78 H78        28.9521   -4.2960   -0.6653 H         1 UNK         0.0836 
     79 H79        32.2307   -5.8994   -1.5437 H         1 UNK         0.0731 
     80 H80        30.5228   -6.0574   -1.2349 H         1 UNK         0.0731 
     81 H81        32.9996   -4.3914   -3.5086 H         1 UNK         0.1312 
     82 H82        30.4040   -4.5252   -6.9150 H         1 UNK         0.1406 
     83 H83        28.9772   -5.8270   -3.0856 H         1 UNK         0.1631 
     84 H84        27.8617   -6.4907   -5.4296 H         1 UNK         0.0717 
     85 H85        28.2132   -5.4178   -6.7623 H         1 UNK         0.0717 
     86 H86        27.6664   -2.0843   -4.6094 H         1 UNK         0.0934 
     87 H87        28.6639   -2.7947   -5.8253 H         1 UNK         0.0934 
     88 H88        26.9451   -2.5279   -7.5499 H         1 UNK         0.0739 
     89 H89        25.1637   -1.8010   -5.3663 H         1 UNK         0.3093 
     90 H90        22.5702   -0.5613   -7.4219 H         1 UNK         0.0818 
     91 H91        21.1985   -2.4354   -6.5383 H         1 UNK         0.0819 
     92 H92        22.2480   -3.0075   -7.8235 H         1 UNK         0.0819 
     93 H93        22.6543   -3.3534   -6.1486 H         1 UNK         0.0819 
     94 H94        22.6552   -1.3625   -4.6665 H         1 UNK         0.3041 
     95 H95        24.0998    1.6250   -3.3836 H         1 UNK         0.0784 
     96 H96        21.6713    2.1480   -3.6891 H         1 UNK         0.0793 
     97 H97        21.2448    0.5200   -3.1802 H         1 UNK         0.0793 
     98 H98        22.0154    1.6318   -2.0478 H         1 UNK         0.0793 
     99 H99        23.1671   -0.6232   -1.9846 H         1 UNK         0.3024 
    100 H100       24.9919   -1.8642   -0.8746 H         1 UNK         0.1171 
    101 H101       24.5931   -4.2184   -1.7157 H         1 UNK         0.0786 
    102 H102       24.5575   -3.6132   -3.3700 H         1 UNK         0.0786 
    103 H103       23.3256   -3.1180   -2.2204 H         1 UNK         0.0786 
    104 H104       26.9123   -3.2369   -2.6314 H         1 UNK         0.2977 
    105 H105       26.7002    0.0981   -5.1179 H         1 UNK         0.3127 
    106 H106       28.7717    1.7326   -6.0099 H         1 UNK         0.0770 
    107 H107       26.1511    2.5309   -4.6321 H         1 UNK         0.0814 
    108 H108       27.6143    3.5071   -4.6861 H         1 UNK         0.0814 
    109 H109       27.6158    1.9757   -3.8228 H         1 UNK         0.0814 
    110 H110       25.4186    1.5969   -7.1900 H         1 UNK         0.2983 
    111 H111       25.5909    3.8338   -8.9851 H         1 UNK         0.0947 
    112 H112       23.4958    2.8430   -9.9324 H         1 UNK         0.0806 
    113 H113       23.4263    2.9150   -8.1788 H         1 UNK         0.0806 
    114 H114       23.7472    1.3810   -8.9862 H         1 UNK         0.0806 
    115 H115       26.7936    0.5400   -9.2213 H         1 UNK         0.3000 
    116 H116       26.9478    0.6086  -12.1759 H         1 UNK         0.0850 
    117 H117       27.6390   -1.7473  -11.9443 H         1 UNK         0.0810 
    118 H118       26.1361   -1.4701  -11.0767 H         1 UNK         0.0810 
    119 H119       27.6516   -1.6159  -10.1924 H         1 UNK         0.0810 
    120 H120       29.1311    0.4896   -9.2766 H         1 UNK         0.3040 
    121 H121       31.3075    1.6578  -10.8630 H         1 UNK         0.0766 
    122 H122       32.8881   -0.1992  -10.2136 H         1 UNK         0.0812 
    123 H123       31.5431   -1.1112   -9.5429 H         1 UNK         0.0812 
    124 H124       31.6202   -0.7914  -11.2744 H         1 UNK         0.0812 
    125 H125       32.9440    2.5492   -9.5783 H         1 UNK         0.3205 
    126 H126       32.1641    3.3483   -6.8759 H         1 UNK         0.0754 
    127 H127       34.1505    4.8353   -7.0780 H         1 UNK         0.0769 
    128 H128       33.0895    5.0106   -8.4644 H         1 UNK         0.0769 
    129 H129       34.5841    4.0854   -8.6082 H         1 UNK         0.0769 
    130 H130       32.2541    0.8949   -6.3881 H         1 UNK         0.2981 
    131 H131       34.7321   -0.3913   -5.8759 H         1 UNK         0.0541 
    132 H132       35.7154   -0.9974   -3.7594 H         1 UNK         0.3459 
    133 H133       35.6809    0.1827   -2.4761 H         1 UNK         0.3459 
    134 H134       31.9378   -0.8642   -4.7077 H         1 UNK         0.0612 
    135 H135       33.2943   -1.9106   -4.3842 H         1 UNK         0.0612 
    136 H136       33.0034   -4.4280   -7.0959 H         1 UNK         0.0624 
    137 H137       33.8889   -3.8729   -5.6978 H         1 UNK         0.0624 
@<TRIPOS>BOND
     1    1    2 1    
     2    1   72 1    
     3    1   73 1    
     4    1   74 1    
     5    2    3 2    
     6    2    4 am   BACKBONE|DICT|INTERRES
     7    4    5 1    
     8    4   75 1    
     9    5    6 1    
    10    5   35 1    
    11    5   76 1    
    12    6    7 1    
    13    6   77 1    
    14    6   78 1    
    15    7    8 1    
    16    8    9 1    
    17    8   79 1    
    18    8   80 1    
    19    9   10 ar   
    20    9   14 ar   
    21   10   11 ar   
    22   10   81 1    
    23   11   12 ar   
    24   11   71 1    
    25   12   13 ar   
    26   12   82 1    
    27   13   14 ar   
    28   13   15 1    
    29   14   83 1    
    30   15   16 1    
    31   15   84 1    
    32   15   85 1    
    33   16   17 1    
    34   17   18 1    
    35   17   86 1    
    36   17   87 1    
    37   18   19 1    
    38   18   37 1    
    39   18   88 1    
    40   19   20 am   BACKBONE|DICT|INTERRES
    41   19   89 1    
    42   20   21 2    
    43   20   22 1    
    44   22   23 1    
    45   22   24 1    
    46   22   90 1    
    47   23   91 1    
    48   23   92 1    
    49   23   93 1    
    50   24   25 am   BACKBONE|DICT|INTERRES
    51   24   94 1    
    52   25   26 2    
    53   25   27 1    
    54   27   28 1    
    55   27   29 1    
    56   27   95 1    
    57   28   96 1    
    58   28   97 1    
    59   28   98 1    
    60   29   30 am   BACKBONE|DICT|INTERRES
    61   29   99 1    
    62   30   31 2    
    63   30   32 1    
    64   32   33 1    
    65   32   34 1    
    66   32  100 1    
    67   33  101 1    
    68   33  102 1    
    69   33  103 1    
    70   34   35 am   BACKBONE|DICT|INTERRES
    71   34  104 1    
    72   35   36 2    
    73   37   38 2    
    74   37   39 am   BACKBONE|DICT|INTERRES
    75   39   40 1    
    76   39  105 1    
    77   40   41 1    
    78   40   42 1    
    79   40  106 1    
    80   41  107 1    
    81   41  108 1    
    82   41  109 1    
    83   42   43 2    
    84   42   44 am   BACKBONE|DICT|INTERRES
    85   44   45 1    
    86   44  110 1    
    87   45   46 1    
    88   45   47 1    
    89   45  111 1    
    90   46  112 1    
    91   46  113 1    
    92   46  114 1    
    93   47   48 2    
    94   47   49 am   BACKBONE|DICT|INTERRES
    95   49   50 1    
    96   49  115 1    
    97   50   51 1    
    98   50   52 1    
    99   50  116 1    
   100   51  117 1    
   101   51  118 1    
   102   51  119 1    
   103   52   53 2    
   104   52   54 am   BACKBONE|DICT|INTERRES
   105   54   55 1    
   106   54  120 1    
   107   55   56 1    
   108   55   57 1    
   109   55  121 1    
   110   56  122 1    
   111   56  123 1    
   112   56  124 1    
   113   57   58 2    
   114   57   59 am   BACKBONE|DICT|INTERRES
   115   59   60 1    
   116   59  125 1    
   117   60   61 1    
   118   60   62 1    
   119   60  126 1    
   120   61  127 1    
   121   61  128 1    
   122   61  129 1    
   123   62   63 2    
   124   62   64 am   BACKBONE|DICT|INTERRES
   125   64   65 1    
   126   64  130 1    
   127   65   66 1    
   128   65   69 1    
   129   65  131 1    
   130   66   67 am   BACKBONE|DICT|INTERRES
   131   66   68 2    
   132   67  132 1    
   133   67  133 1    
   134   69   70 1    
   135   69  134 1    
   136   69  135 1    
   137   70   71 1    
   138   71  136 1    
   139   71  137 1    
@<TRIPOS>SUBSTRUCTURE
     1 UNK         1 GROUP             0       ****    0 ROOT    
