@<TRIPOS>MOLECULE
3R137
137   139    1
SMALL
USER_CHARGES


@<TRIPOS>ATOM
      1 CA         23.9349   -5.9972   -3.8659 C.3       0 UNK        -0.2020 
      2 C          25.0096   -5.1086   -3.2608 C.2       0 UNK         0.4855 
      3 O          25.3463   -4.0780   -3.8453 O.2       0 UNK        -0.5197 
      4 N          25.5293   -5.4792   -2.0810 N.am      1 UNK        -0.4892 
      5 CA         26.6141   -4.8378   -1.3129 C.3       1 UNK         0.0835 
      6 C6         27.9510   -4.7842   -2.1028 C.3       12 UNK        -0.0855 
      7 S7         29.3980   -4.9244   -1.0047 S.3       12 UNK        -0.2931 
      8 C8         30.7684   -4.7487   -2.1940 C.3       12 UNK         0.0378 
      9 C9         30.8935   -3.3437   -2.7761 C.ar      12 UNK        -0.0802 
     10 C10        31.0584   -3.1717   -4.1539 C.ar      12 UNK        -0.0944 
     11 C11        31.2343   -1.8984   -4.7045 C.ar      12 UNK        -0.0787 
     12 C12        31.2455   -0.7894   -3.8490 C.ar      12 UNK        -0.0862 
     13 C13        31.0339   -0.9361   -2.4754 C.ar      12 UNK        -0.0733 
     14 C14        30.8799   -2.2192   -1.9441 C.ar      12 UNK        -0.0832 
     15 C15        30.9644    0.2797   -1.5528 C.3       12 UNK         0.0240 
     16 S16        30.0349    1.6983   -2.2422 S.3       12 UNK        -0.2522 
     17 C17        28.4592    0.9364   -2.7634 C.3       12 UNK        -0.0967 
     18 CA         28.2840    0.9711   -4.3077 C.3       5 UNK         0.0660 
     19 N          27.5687   -0.2026   -4.8072 N.am      5 UNK        -0.4015 
     20 C          27.5342   -0.6023   -6.0865 C.2       4 UNK         0.4946 
     21 O          28.1454   -0.0532   -7.0035 O.2       4 UNK        -0.5353 
     22 CA         26.6305   -1.8058   -6.4023 C.3       4 UNK         0.0277 
     23 CB         27.4029   -3.1211   -6.2103 C.3       4 UNK        -0.1981 
     24 N          25.4127   -1.8330   -5.5864 N.am      4 UNK        -0.4209 
     25 C          24.4490   -0.9002   -5.6291 C.2       3 UNK         0.4942 
     26 O          24.4612    0.0608   -6.3960 O.2       3 UNK        -0.5208 
     27 CA         23.3106   -1.0221   -4.6036 C.3       3 UNK         0.0250 
     28 CB         22.2708   -2.0528   -5.0712 C.3       3 UNK        -0.1990 
     29 N          23.7797   -1.3727   -3.2606 N.am      3 UNK        -0.4232 
     30 C          24.6450   -0.6557   -2.5264 C.2       2 UNK         0.4993 
     31 O          25.1395    0.4107   -2.8901 O.2       2 UNK        -0.5286 
     32 CA         25.0942   -1.2848   -1.2060 C.3       2 UNK         0.0209 
     33 CB         23.9765   -1.2378   -0.1472 C.3       2 UNK        -0.1931 
     34 N          25.5141   -2.6547   -1.4813 N.am      2 UNK        -0.4546 
     35 C          26.2491   -3.4579   -0.7122 C.2       1 UNK         0.5154 
     36 O          26.6260   -3.1588    0.4217 O.2       1 UNK        -0.5181 
     37 C          27.6140    2.2723   -4.7858 C.2       5 UNK         0.5014 
     38 O          28.3011    3.1554   -5.2995 O.2       5 UNK        -0.5248 
     39 N          26.2820    2.3489   -4.6435 N.am      6 UNK        -0.4434 
     40 CA         25.4496    3.4674   -5.0945 C.3       6 UNK         0.0363 
     41 CB         24.0070    3.2612   -4.6061 C.3       6 UNK        -0.1936 
     42 C          25.4851    3.6710   -6.6193 C.2       6 UNK         0.5081 
     43 O          25.5579    4.8120   -7.0762 O.2       6 UNK        -0.5248 
     44 N          25.4579    2.5660   -7.3767 N.am      7 UNK        -0.4718 
     45 CA         25.5904    2.5535   -8.8360 C.3       7 UNK         0.0273 
     46 CB         25.1098    1.1935   -9.3688 C.3       7 UNK        -0.1935 
     47 C          27.0228    2.8309   -9.3278 C.2       7 UNK         0.5018 
     48 O          27.1856    3.1970  -10.4924 O.2       7 UNK        -0.5186 
     49 N          28.0199    2.6268   -8.4522 N.am      8 UNK        -0.4240 
     50 CA         29.4638    2.6568   -8.7112 C.3       8 UNK         0.0235 
     51 CB         29.9403    4.0855   -9.0463 C.3       8 UNK        -0.2000 
     52 C          29.8616    1.6151   -9.7731 C.2       8 UNK         0.4941 
     53 O          30.4962    1.9522  -10.7761 O.2       8 UNK        -0.5273 
     54 N          29.4441    0.3633   -9.5433 N.am      9 UNK        -0.4262 
     55 CA         29.5818   -0.7805  -10.4485 C.3       9 UNK         0.0264 
     56 CB         28.6059   -1.8796   -9.9886 C.3       9 UNK        -0.1955 
     57 C          31.0325   -1.2935  -10.5793 C.2       9 UNK         0.5031 
     58 O          31.3130   -2.4384  -10.2187 O.2       9 UNK        -0.5390 
     59 N          31.9196   -0.4339  -11.1035 N.am      10 UNK        -0.4204 
     60 CA         33.3497   -0.6559  -11.3671 C.3       10 UNK         0.0237 
     61 CB         33.5389   -1.6700  -12.5156 C.3       10 UNK        -0.1985 
     62 C          34.1360   -1.0317  -10.0953 C.2       10 UNK         0.4970 
     63 O          34.9251   -1.9786  -10.1052 O.2       10 UNK        -0.4914 
     64 N          33.8742   -0.2890   -9.0141 N.am      11 UNK        -0.4285 
     65 CA         34.3573   -0.5738   -7.6537 C.3       11 UNK         0.1007 
     66 C          35.8635   -0.2715   -7.4053 C.2       11 UNK         0.5703 
     67 N          36.5675    0.3969   -8.3112 N.am      11 UNK        -0.7361 
     68 O          36.4048   -0.6576   -6.3720 O.2       11 UNK        -0.4986 
     69 C69        33.4658    0.0985   -6.5730 C.3       12 UNK        -0.0947 
     70 S70        31.6773   -0.1030   -6.8762 S.3       12 UNK        -0.2240 
     71 C71        31.3772   -1.7803   -6.2235 C.3       12 UNK         0.0194 
     72 H72        24.2313   -6.3107   -4.8664 H         1 UNK         0.0906 
     73 H73        23.7590   -6.8914   -3.2684 H         1 UNK         0.0906 
     74 H74        22.9962   -5.4498   -3.9448 H         1 UNK         0.0906 
     75 H75        25.1609   -6.3147   -1.6461 H         1 UNK         0.3140 
     76 H76        26.7558   -5.5012   -0.4575 H         1 UNK         0.1085 
     77 H77        28.0252   -3.8778   -2.7074 H         1 UNK         0.0836 
     78 H78        28.0057   -5.6159   -2.8073 H         1 UNK         0.0836 
     79 H79        30.6439   -5.4898   -2.9852 H         1 UNK         0.0731 
     80 H80        31.7022   -4.9954   -1.6872 H         1 UNK         0.0731 
     81 H81        31.0586   -4.0355   -4.8049 H         1 UNK         0.1312 
     82 H82        31.3885    0.2051   -4.2431 H         1 UNK         0.1406 
     83 H83        30.7432   -2.3466   -0.8786 H         1 UNK         0.1631 
     84 H84        31.9801    0.6042   -1.3238 H         1 UNK         0.0717 
     85 H85        30.5051    0.0072   -0.6012 H         1 UNK         0.0717 
     86 H86        28.4363   -0.0918   -2.3994 H         1 UNK         0.0934 
     87 H87        27.6366    1.4355   -2.2468 H         1 UNK         0.0934 
     88 H88        29.2689    0.9409   -4.7766 H         1 UNK         0.0739 
     89 H89        26.9885   -0.6903   -4.1423 H         1 UNK         0.3093 
     90 H90        26.3303   -1.7302   -7.4494 H         1 UNK         0.0818 
     91 H91        28.2840   -3.1574   -6.8503 H         1 UNK         0.0819 
     92 H92        27.7432   -3.2444   -5.1813 H         1 UNK         0.0819 
     93 H93        26.7857   -3.9836   -6.4621 H         1 UNK         0.0819 
     94 H94        25.3170   -2.6153   -4.9405 H         1 UNK         0.3041 
     95 H95        22.8217   -0.0481   -4.5362 H         1 UNK         0.0784 
     96 H96        21.8929   -1.8018   -6.0634 H         1 UNK         0.0793 
     97 H97        22.6929   -3.0571   -5.1277 H         1 UNK         0.0793 
     98 H98        21.4132   -2.0854   -4.3990 H         1 UNK         0.0793 
     99 H99        23.4193   -2.2322   -2.8730 H         1 UNK         0.3024 
    100 H100       25.9557   -0.7216   -0.8397 H         1 UNK         0.1171 
    101 H101       24.3271   -1.6059    0.8170 H         1 UNK         0.0786 
    102 H102       23.6291   -0.2153    0.0067 H         1 UNK         0.0786 
    103 H103       23.1136   -1.8377   -0.4380 H         1 UNK         0.0786 
    104 H104       25.3213   -3.0085   -2.4171 H         1 UNK         0.2977 
    105 H105       25.8029    1.5914   -4.1593 H         1 UNK         0.3127 
    106 H106       25.8408    4.3753   -4.6307 H         1 UNK         0.0770 
    107 H107       23.5646    2.3575   -5.0263 H         1 UNK         0.0814 
    108 H108       23.3733    4.1005   -4.8956 H         1 UNK         0.0814 
    109 H109       23.9634    3.1801   -3.5198 H         1 UNK         0.0814 
    110 H110       25.3079    1.6654   -6.9257 H         1 UNK         0.2983 
    111 H111       24.9453    3.3328   -9.2475 H         1 UNK         0.0947 
    112 H112       25.1627    1.1569  -10.4577 H         1 UNK         0.0806 
    113 H113       24.0744    1.0003   -9.0875 H         1 UNK         0.0806 
    114 H114       25.7193    0.3745   -8.9840 H         1 UNK         0.0806 
    115 H115       27.7606    2.3069   -7.5276 H         1 UNK         0.3000 
    116 H116       29.9479    2.3551   -7.7808 H         1 UNK         0.0850 
    117 H117       31.0262    4.1202   -9.1404 H         1 UNK         0.0810 
    118 H118       29.6592    4.7885   -8.2621 H         1 UNK         0.0810 
    119 H119       29.5215    4.4454   -9.9865 H         1 UNK         0.0810 
    120 H120       28.9714    0.1813   -8.6581 H         1 UNK         0.3040 
    121 H121       29.2683   -0.4589  -11.4438 H         1 UNK         0.0766 
    122 H122       27.5783   -1.5162   -9.9671 H         1 UNK         0.0812 
    123 H123       28.8550   -2.2390   -8.9901 H         1 UNK         0.0812 
    124 H124       28.6332   -2.7369  -10.6624 H         1 UNK         0.0812 
    125 H125       31.5704    0.5069  -11.2827 H         1 UNK         0.3205 
    126 H126       33.7531    0.3005  -11.7030 H         1 UNK         0.0754 
    127 H127       34.5910   -1.7604  -12.7890 H         1 UNK         0.0769 
    128 H128       32.9985   -1.3607  -13.4103 H         1 UNK         0.0769 
    129 H129       33.1878   -2.6649  -12.2393 H         1 UNK         0.0769 
    130 H130       33.2076    0.4639   -9.0913 H         1 UNK         0.2981 
    131 H131       34.2594   -1.6519   -7.5144 H         1 UNK         0.0541 
    132 H132       36.1335    0.7122   -9.1635 H         1 UNK         0.3459 
    133 H133       37.5433    0.5827   -8.1407 H         1 UNK         0.3459 
    134 H134       33.6668    1.1705   -6.5323 H         1 UNK         0.0612 
    135 H135       33.7020   -0.2931   -5.5819 H         1 UNK         0.0612 
    136 H136       30.4559   -2.1421   -6.6801 H         1 UNK         0.0624 
    137 H137       32.1700   -2.4444   -6.5692 H         1 UNK         0.0624 
@<TRIPOS>BOND
     1    1    2 1    
     2    1   72 1    
     3    1   73 1    
     4    1   74 1    
     5    2    3 2    
     6    2    4 am   BACKBONE|DICT|INTERRES
     7    4    5 1    
     8    4   75 1    
     9    5    6 1    
    10    5   35 1    
    11    5   76 1    
    12    6    7 1    
    13    6   77 1    
    14    6   78 1    
    15    7    8 1    
    16    8    9 1    
    17    8   79 1    
    18    8   80 1    
    19    9   10 ar   
    20    9   14 ar   
    21   10   11 ar   
    22   10   81 1    
    23   11   12 ar   
    24   11   71 1    
    25   12   13 ar   
    26   12   82 1    
    27   13   14 ar   
    28   13   15 1    
    29   14   83 1    
    30   15   16 1    
    31   15   84 1    
    32   15   85 1    
    33   16   17 1    
    34   17   18 1    
    35   17   86 1    
    36   17   87 1    
    37   18   19 1    
    38   18   37 1    
    39   18   88 1    
    40   19   20 am   BACKBONE|DICT|INTERRES
    41   19   89 1    
    42   20   21 2    
    43   20   22 1    
    44   22   23 1    
    45   22   24 1    
    46   22   90 1    
    47   23   91 1    
    48   23   92 1    
    49   23   93 1    
    50   24   25 am   BACKBONE|DICT|INTERRES
    51   24   94 1    
    52   25   26 2    
    53   25   27 1    
    54   27   28 1    
    55   27   29 1    
    56   27   95 1    
    57   28   96 1    
    58   28   97 1    
    59   28   98 1    
    60   29   30 am   BACKBONE|DICT|INTERRES
    61   29   99 1    
    62   30   31 2    
    63   30   32 1    
    64   32   33 1    
    65   32   34 1    
    66   32  100 1    
    67   33  101 1    
    68   33  102 1    
    69   33  103 1    
    70   34   35 am   BACKBONE|DICT|INTERRES
    71   34  104 1    
    72   35   36 2    
    73   37   38 2    
    74   37   39 am   BACKBONE|DICT|INTERRES
    75   39   40 1    
    76   39  105 1    
    77   40   41 1    
    78   40   42 1    
    79   40  106 1    
    80   41  107 1    
    81   41  108 1    
    82   41  109 1    
    83   42   43 2    
    84   42   44 am   BACKBONE|DICT|INTERRES
    85   44   45 1    
    86   44  110 1    
    87   45   46 1    
    88   45   47 1    
    89   45  111 1    
    90   46  112 1    
    91   46  113 1    
    92   46  114 1    
    93   47   48 2    
    94   47   49 am   BACKBONE|DICT|INTERRES
    95   49   50 1    
    96   49  115 1    
    97   50   51 1    
    98   50   52 1    
    99   50  116 1    
   100   51  117 1    
   101   51  118 1    
   102   51  119 1    
   103   52   53 2    
   104   52   54 am   BACKBONE|DICT|INTERRES
   105   54   55 1    
   106   54  120 1    
   107   55   56 1    
   108   55   57 1    
   109   55  121 1    
   110   56  122 1    
   111   56  123 1    
   112   56  124 1    
   113   57   58 2    
   114   57   59 am   BACKBONE|DICT|INTERRES
   115   59   60 1    
   116   59  125 1    
   117   60   61 1    
   118   60   62 1    
   119   60  126 1    
   120   61  127 1    
   121   61  128 1    
   122   61  129 1    
   123   62   63 2    
   124   62   64 am   BACKBONE|DICT|INTERRES
   125   64   65 1    
   126   64  130 1    
   127   65   66 1    
   128   65   69 1    
   129   65  131 1    
   130   66   67 am   BACKBONE|DICT|INTERRES
   131   66   68 2    
   132   67  132 1    
   133   67  133 1    
   134   69   70 1    
   135   69  134 1    
   136   69  135 1    
   137   70   71 1    
   138   71  136 1    
   139   71  137 1    
@<TRIPOS>SUBSTRUCTURE
     1 UNK         1 GROUP             0       ****    0 ROOT    
