@<TRIPOS>MOLECULE
3R137
137   139    1
SMALL
USER_CHARGES


@<TRIPOS>ATOM
      1 CA         23.0763   -1.7203   -7.3656 C.3       0 UNK        -0.2020 
      2 C          23.3223   -2.9435   -6.4948 C.2       0 UNK         0.4855 
      3 O          22.6224   -3.9478   -6.6317 O.2       0 UNK        -0.5197 
      4 N          24.3141   -2.8618   -5.6046 N.am      1 UNK        -0.4892 
      5 CA         24.6571   -3.8875   -4.6168 C.3       1 UNK         0.0835 
      6 C6         26.1772   -3.8670   -4.3108 C.3       12 UNK        -0.0855 
      7 S7         27.1807   -4.2998   -5.7707 S.3       12 UNK        -0.2931 
      8 C8         28.6026   -5.1404   -5.0064 C.3       12 UNK         0.0378 
      9 C9         29.5737   -4.1484   -4.3825 C.ar      12 UNK        -0.0802 
     10 C10        30.6862   -3.7063   -5.1062 C.ar      12 UNK        -0.0944 
     11 C11        31.5996   -2.8164   -4.5325 C.ar      12 UNK        -0.0787 
     12 C12        31.3840   -2.3588   -3.2291 C.ar      12 UNK        -0.0862 
     13 C13        30.2631   -2.7736   -2.5046 C.ar      12 UNK        -0.0733 
     14 C14        29.3710   -3.6825   -3.0793 C.ar      12 UNK        -0.0832 
     15 C15        30.0169   -2.2360   -1.1017 C.3       12 UNK         0.0240 
     16 S16        28.5758   -1.1212   -1.0291 S.3       12 UNK        -0.2522 
     17 C17        29.0097    0.1668   -2.2504 C.3       12 UNK        -0.0967 
     18 CA         28.0643    0.1335   -3.4801 C.3       5 UNK         0.0660 
     19 N          26.6792    0.4189   -3.0838 N.am      5 UNK        -0.4015 
     20 C          25.5739    0.1565   -3.7893 C.2       4 UNK         0.4946 
     21 O          25.5795   -0.4201   -4.8811 O.2       4 UNK        -0.5353 
     22 CA         24.2517    0.6226   -3.1629 C.3       4 UNK         0.0277 
     23 CB         23.0760    0.5756   -4.1572 C.3       4 UNK        -0.1981 
     24 N          23.9311   -0.1839   -1.9842 N.am      4 UNK        -0.4209 
     25 C          24.3762    0.0679   -0.7439 C.2       3 UNK         0.4942 
     26 O          25.1342    1.0037   -0.4824 O.2       3 UNK        -0.5208 
     27 CA         23.8996   -0.8448    0.4033 C.3       3 UNK         0.0250 
     28 CB         22.7834   -0.1532    1.2036 C.3       3 UNK        -0.1990 
     29 N          23.4167   -2.1495   -0.0548 N.am      3 UNK        -0.4232 
     30 C          24.2085   -3.1931   -0.3321 C.2       2 UNK         0.4993 
     31 O          25.4270   -3.1948   -0.1547 O.2       2 UNK        -0.5286 
     32 CA         23.5526   -4.4392   -0.9617 C.3       2 UNK         0.0209 
     33 CB         22.0103   -4.4839   -0.8479 C.3       2 UNK        -0.1931 
     34 N          23.9897   -4.5834   -2.3573 N.am      2 UNK        -0.4546 
     35 C          23.8416   -3.6655   -3.3256 C.2       1 UNK         0.5154 
     36 O          23.1404   -2.6580   -3.1945 O.2       1 UNK        -0.5181 
     37 C          28.5277    1.0848   -4.6102 C.2       5 UNK         0.5014 
     38 O          29.4704    1.8566   -4.4255 O.2       5 UNK        -0.5248 
     39 N          27.8248    1.0352   -5.7472 N.am      6 UNK        -0.4434 
     40 CA         28.0141    1.8832   -6.9253 C.3       6 UNK         0.0363 
     41 CB         26.8723    2.9145   -6.9876 C.3       6 UNK        -0.1936 
     42 C          28.1094    1.0489   -8.2146 C.2       6 UNK         0.5081 
     43 O          27.9175    1.5879   -9.3060 O.2       6 UNK        -0.5248 
     44 N          28.4087   -0.2516   -8.0836 N.am      7 UNK        -0.4718 
     45 CA         28.7429   -1.1357   -9.2024 C.3       7 UNK         0.0273 
     46 CB         28.8037   -2.5861   -8.7015 C.3       7 UNK        -0.1935 
     47 C          30.0848   -0.7209   -9.8252 C.2       7 UNK         0.5018 
     48 O          30.9769   -0.2947   -9.0897 O.2       7 UNK        -0.5186 
     49 N          30.1977   -0.8341  -11.1576 N.am      8 UNK        -0.4240 
     50 CA         31.3397   -0.3866  -11.9719 C.3       8 UNK         0.0235 
     51 CB         32.5594   -1.3067  -11.7518 C.3       8 UNK        -0.2000 
     52 C          31.6619    1.1059  -11.7469 C.2       8 UNK         0.4941 
     53 O          32.8132    1.4617  -11.4773 O.2       8 UNK        -0.5273 
     54 N          30.6073    1.9358  -11.7884 N.am      9 UNK        -0.4262 
     55 CA         30.5413    3.3752  -11.4938 C.3       9 UNK         0.0264 
     56 CB         31.4262    4.1961  -12.4530 C.3       9 UNK        -0.1955 
     57 C          30.8307    3.7257  -10.0224 C.2       9 UNK         0.5031 
     58 O          30.0220    4.4065   -9.3906 O.2       9 UNK        -0.5390 
     59 N          31.9697    3.2547   -9.5114 N.am      10 UNK        -0.4204 
     60 CA         32.4439    3.4101   -8.1404 C.3       10 UNK         0.0237 
     61 CB         32.9192    4.8579   -7.8885 C.3       10 UNK        -0.1985 
     62 C          33.5351    2.3625   -7.8738 C.2       10 UNK         0.4970 
     63 O          34.6300    2.7172   -7.4327 O.2       10 UNK        -0.4914 
     64 N          33.2244    1.0938   -8.1714 N.am      11 UNK        -0.4285 
     65 CA         34.0997   -0.0764   -7.9985 C.3       11 UNK         0.1007 
     66 C          35.3554   -0.0668   -8.9212 C.2       11 UNK         0.5703 
     67 N          35.2787    0.5074  -10.1171 N.am      11 UNK        -0.7361 
     68 O          36.4050   -0.6009   -8.5689 O.2       11 UNK        -0.4986 
     69 C69        34.4149   -0.3792   -6.5046 C.3       12 UNK        -0.0947 
     70 S70        32.8991   -0.5639   -5.5024 S.3       12 UNK        -0.2240 
     71 C71        32.8326   -2.3711   -5.3072 C.3       12 UNK         0.0194 
     72 H72        23.1717   -1.9825   -8.4189 H         1 UNK         0.0906 
     73 H73        22.0706   -1.3363   -7.1974 H         1 UNK         0.0906 
     74 H74        23.7849   -0.9201   -7.1497 H         1 UNK         0.0906 
     75 H75        24.8102   -1.9796   -5.4860 H         1 UNK         0.3140 
     76 H76        24.3900   -4.8721   -5.0070 H         1 UNK         0.1085 
     77 H77        26.4905   -2.8855   -3.9497 H         1 UNK         0.0836 
     78 H78        26.4161   -4.5736   -3.5151 H         1 UNK         0.0836 
     79 H79        29.1123   -5.7244   -5.7743 H         1 UNK         0.0731 
     80 H80        28.2605   -5.8606   -4.2618 H         1 UNK         0.0731 
     81 H81        30.8466   -4.0668   -6.1131 H         1 UNK         0.1312 
     82 H82        32.0872   -1.6669   -2.7857 H         1 UNK         0.1406 
     83 H83        28.5123   -4.0128   -2.5115 H         1 UNK         0.1631 
     84 H84        30.8943   -1.7054   -0.7284 H         1 UNK         0.0717 
     85 H85        29.8516   -3.0710   -0.4195 H         1 UNK         0.0717 
     86 H86        30.0494    0.0413   -2.5565 H         1 UNK         0.0934 
     87 H87        28.9632    1.1394   -1.7569 H         1 UNK         0.0934 
     88 H88        28.0968   -0.8765   -3.8955 H         1 UNK         0.0739 
     89 H89        26.5601    0.8559   -2.1777 H         1 UNK         0.3093 
     90 H90        24.3794    1.6662   -2.8664 H         1 UNK         0.0818 
     91 H91        22.8733   -0.4360   -4.5067 H         1 UNK         0.0819 
     92 H92        22.1616    0.9613   -3.7066 H         1 UNK         0.0819 
     93 H93        23.2861    1.1854   -5.0369 H         1 UNK         0.0819 
     94 H94        23.4077   -1.0364   -2.1656 H         1 UNK         0.3041 
     95 H95        24.7499   -0.9963    1.0721 H         1 UNK         0.0784 
     96 H96        23.1190    0.8111    1.5882 H         1 UNK         0.0793 
     97 H97        21.8998    0.0301    0.5910 H         1 UNK         0.0793 
     98 H98        22.4798   -0.7537    2.0614 H         1 UNK         0.0793 
     99 H99        22.4300   -2.2289   -0.2554 H         1 UNK         0.3024 
    100 H100       23.9476   -5.2969   -0.4141 H         1 UNK         0.1171 
    101 H101       21.6216   -5.4254   -1.2360 H         1 UNK         0.0786 
    102 H102       21.6919   -4.4151    0.1933 H         1 UNK         0.0786 
    103 H103       21.5207   -3.6803   -1.3982 H         1 UNK         0.0786 
    104 H104       24.5835   -5.3805   -2.5401 H         1 UNK         0.2977 
    105 H105       27.0286    0.3998   -5.7712 H         1 UNK         0.3127 
    106 H106       28.9598    2.4241   -6.8481 H         1 UNK         0.0770 
    107 H107       25.9025    2.4322   -7.1153 H         1 UNK         0.0814 
    108 H108       27.0105    3.6031   -7.8224 H         1 UNK         0.0814 
    109 H109       26.8320    3.5154   -6.0791 H         1 UNK         0.0814 
    110 H110       28.5958   -0.6055   -7.1573 H         1 UNK         0.2983 
    111 H111       27.9568   -1.0526   -9.9561 H         1 UNK         0.0947 
    112 H112       29.0758   -3.2697   -9.5066 H         1 UNK         0.0806 
    113 H113       29.5393   -2.7088   -7.9054 H         1 UNK         0.0806 
    114 H114       27.8358   -2.9088   -8.3188 H         1 UNK         0.0806 
    115 H115       29.4109   -1.2030  -11.6745 H         1 UNK         0.3000 
    116 H116       31.0407   -0.4801  -13.0171 H         1 UNK         0.0850 
    117 H117       33.3897   -1.0186  -12.3979 H         1 UNK         0.0810 
    118 H118       32.3177   -2.3447  -11.9795 H         1 UNK         0.0810 
    119 H119       32.9190   -1.2666  -10.7243 H         1 UNK         0.0810 
    120 H120       29.7064    1.5093  -11.9569 H         1 UNK         0.3040 
    121 H121       29.5055    3.6633  -11.6816 H         1 UNK         0.0766 
    122 H122       32.4860    3.9702  -12.3328 H         1 UNK         0.0812 
    123 H123       31.3024    5.2651  -12.2746 H         1 UNK         0.0812 
    124 H124       31.1608    4.0088  -13.4934 H         1 UNK         0.0812 
    125 H125       32.5359    2.6679  -10.1237 H         1 UNK         0.3205 
    126 H126       31.6187    3.1897   -7.4598 H         1 UNK         0.0754 
    127 H127       33.2825    4.9785   -6.8671 H         1 UNK         0.0769 
    128 H128       32.1110    5.5761   -8.0256 H         1 UNK         0.0769 
    129 H129       33.7312    5.1354   -8.5616 H         1 UNK         0.0769 
    130 H130       32.3004    0.8621   -8.5304 H         1 UNK         0.2981 
    131 H131       33.5175   -0.9230   -8.3619 H         1 UNK         0.0541 
    132 H132       36.0914    0.5085  -10.7117 H         1 UNK         0.3459 
    133 H133       34.4076    0.9015  -10.4563 H         1 UNK         0.3459 
    134 H134       35.0100   -1.2893   -6.4144 H         1 UNK         0.0612 
    135 H135       35.0192    0.4178   -6.0694 H         1 UNK         0.0612 
    136 H136       33.7256   -2.7104   -4.7805 H         1 UNK         0.0624 
    137 H137       32.8553   -2.8318   -6.2962 H         1 UNK         0.0624 
@<TRIPOS>BOND
     1    1    2 1    
     2    1   72 1    
     3    1   73 1    
     4    1   74 1    
     5    2    3 2    
     6    2    4 am   BACKBONE|DICT|INTERRES
     7    4    5 1    
     8    4   75 1    
     9    5    6 1    
    10    5   35 1    
    11    5   76 1    
    12    6    7 1    
    13    6   77 1    
    14    6   78 1    
    15    7    8 1    
    16    8    9 1    
    17    8   79 1    
    18    8   80 1    
    19    9   10 ar   
    20    9   14 ar   
    21   10   11 ar   
    22   10   81 1    
    23   11   12 ar   
    24   11   71 1    
    25   12   13 ar   
    26   12   82 1    
    27   13   14 ar   
    28   13   15 1    
    29   14   83 1    
    30   15   16 1    
    31   15   84 1    
    32   15   85 1    
    33   16   17 1    
    34   17   18 1    
    35   17   86 1    
    36   17   87 1    
    37   18   19 1    
    38   18   37 1    
    39   18   88 1    
    40   19   20 am   BACKBONE|DICT|INTERRES
    41   19   89 1    
    42   20   21 2    
    43   20   22 1    
    44   22   23 1    
    45   22   24 1    
    46   22   90 1    
    47   23   91 1    
    48   23   92 1    
    49   23   93 1    
    50   24   25 am   BACKBONE|DICT|INTERRES
    51   24   94 1    
    52   25   26 2    
    53   25   27 1    
    54   27   28 1    
    55   27   29 1    
    56   27   95 1    
    57   28   96 1    
    58   28   97 1    
    59   28   98 1    
    60   29   30 am   BACKBONE|DICT|INTERRES
    61   29   99 1    
    62   30   31 2    
    63   30   32 1    
    64   32   33 1    
    65   32   34 1    
    66   32  100 1    
    67   33  101 1    
    68   33  102 1    
    69   33  103 1    
    70   34   35 am   BACKBONE|DICT|INTERRES
    71   34  104 1    
    72   35   36 2    
    73   37   38 2    
    74   37   39 am   BACKBONE|DICT|INTERRES
    75   39   40 1    
    76   39  105 1    
    77   40   41 1    
    78   40   42 1    
    79   40  106 1    
    80   41  107 1    
    81   41  108 1    
    82   41  109 1    
    83   42   43 2    
    84   42   44 am   BACKBONE|DICT|INTERRES
    85   44   45 1    
    86   44  110 1    
    87   45   46 1    
    88   45   47 1    
    89   45  111 1    
    90   46  112 1    
    91   46  113 1    
    92   46  114 1    
    93   47   48 2    
    94   47   49 am   BACKBONE|DICT|INTERRES
    95   49   50 1    
    96   49  115 1    
    97   50   51 1    
    98   50   52 1    
    99   50  116 1    
   100   51  117 1    
   101   51  118 1    
   102   51  119 1    
   103   52   53 2    
   104   52   54 am   BACKBONE|DICT|INTERRES
   105   54   55 1    
   106   54  120 1    
   107   55   56 1    
   108   55   57 1    
   109   55  121 1    
   110   56  122 1    
   111   56  123 1    
   112   56  124 1    
   113   57   58 2    
   114   57   59 am   BACKBONE|DICT|INTERRES
   115   59   60 1    
   116   59  125 1    
   117   60   61 1    
   118   60   62 1    
   119   60  126 1    
   120   61  127 1    
   121   61  128 1    
   122   61  129 1    
   123   62   63 2    
   124   62   64 am   BACKBONE|DICT|INTERRES
   125   64   65 1    
   126   64  130 1    
   127   65   66 1    
   128   65   69 1    
   129   65  131 1    
   130   66   67 am   BACKBONE|DICT|INTERRES
   131   66   68 2    
   132   67  132 1    
   133   67  133 1    
   134   69   70 1    
   135   69  134 1    
   136   69  135 1    
   137   70   71 1    
   138   71  136 1    
   139   71  137 1    
@<TRIPOS>SUBSTRUCTURE
     1 UNK         1 GROUP             0       ****    0 ROOT    
