@<TRIPOS>MOLECULE
3R137
137   139    1
SMALL
USER_CHARGES


@<TRIPOS>ATOM
      1 CA         30.0114   -5.6828   -7.6916 C.3       0 UNK        -0.2020 
      2 C          29.0820   -6.2953   -6.6551 C.2       0 UNK         0.4855 
      3 O          28.3977   -7.2761   -6.9468 O.2       0 UNK        -0.5197 
      4 N          29.0541   -5.7256   -5.4434 N.am      1 UNK        -0.4892 
      5 CA         28.2028   -6.1560   -4.3242 C.3       1 UNK         0.0835 
      6 C6         28.7118   -5.5883   -2.9738 C.3       12 UNK        -0.0855 
      7 S7         28.8098   -3.7652   -2.9581 S.3       12 UNK        -0.2931 
      8 C8         30.1950   -3.4680   -1.8225 C.3       12 UNK         0.0378 
      9 C9         30.5222   -1.9845   -1.7815 C.ar      12 UNK        -0.0802 
     10 C10        31.6115   -1.4824   -2.4989 C.ar      12 UNK        -0.0944 
     11 C11        31.8869   -0.1122   -2.5024 C.ar      12 UNK        -0.0787 
     12 C12        31.0721    0.7568   -1.7718 C.ar      12 UNK        -0.0862 
     13 C13        29.9738    0.2664   -1.0580 C.ar      12 UNK        -0.0733 
     14 C14        29.7114   -1.1066   -1.0563 C.ar      12 UNK        -0.0832 
     15 C15        29.0601    1.2187   -0.3000 C.3       12 UNK         0.0240 
     16 S16        27.4367    1.4048   -1.1102 S.3       12 UNK        -0.2522 
     17 C17        27.8758    2.1956   -2.6983 C.3       12 UNK        -0.0967 
     18 CA         27.3126    1.4205   -3.9303 C.3       5 UNK         0.0660 
     19 N          25.8497    1.2699   -3.8818 N.am      5 UNK        -0.4015 
     20 C          24.9475    2.2631   -3.9283 C.2       4 UNK         0.4946 
     21 O          25.2472    3.4519   -4.0596 O.2       4 UNK        -0.5353 
     22 CA         23.4589    1.9092   -3.7314 C.3       4 UNK         0.0277 
     23 CB         22.5699    2.5142   -4.8402 C.3       4 UNK        -0.1981 
     24 N          23.1692    0.4831   -3.5156 N.am      4 UNK        -0.4209 
     25 C          23.1932   -0.5118   -4.4130 C.2       3 UNK         0.4942 
     26 O          23.4836   -0.3717   -5.6023 O.2       3 UNK        -0.5208 
     27 CA         22.7862   -1.8968   -3.8760 C.3       3 UNK         0.0250 
     28 CB         21.2545   -2.0378   -3.8643 C.3       3 UNK        -0.1990 
     29 N          23.3555   -2.9950   -4.6597 N.am      3 UNK        -0.4232 
     30 C          24.6620   -3.2740   -4.7455 C.2       2 UNK         0.4993 
     31 O          25.5366   -2.6562   -4.1323 O.2       2 UNK        -0.5286 
     32 CA         25.0398   -4.4149   -5.7046 C.3       2 UNK         0.0209 
     33 CB         24.9791   -3.9316   -7.1614 C.3       2 UNK        -0.1931 
     34 N          26.3903   -4.9049   -5.4350 N.am      2 UNK        -0.4546 
     35 C          26.7009   -5.8486   -4.5371 C.2       1 UNK         0.5154 
     36 O          25.8589   -6.4750   -3.8900 O.2       1 UNK        -0.5181 
     37 C          27.7765    1.9964   -5.2946 C.2       5 UNK         0.5014 
     38 O          27.1037    1.7833   -6.3074 O.2       5 UNK        -0.5248 
     39 N          28.9190    2.7022   -5.3044 N.am      6 UNK        -0.4434 
     40 CA         29.4743    3.4890   -6.4112 C.3       6 UNK         0.0363 
     41 CB         28.6772    4.8048   -6.5618 C.3       6 UNK        -0.1936 
     42 C          29.6132    2.6851   -7.7182 C.2       6 UNK         0.5081 
     43 O          30.2607    1.6379   -7.7142 O.2       6 UNK        -0.5248 
     44 N          29.0252    3.1806   -8.8155 N.am      7 UNK        -0.4718 
     45 CA         29.0837    2.5804  -10.1508 C.3       7 UNK         0.0273 
     46 CB         28.4159    3.5243  -11.1630 C.3       7 UNK        -0.1935 
     47 C          28.4646    1.1753  -10.2353 C.2       7 UNK         0.5018 
     48 O          28.9569    0.3560  -11.0104 O.2       7 UNK        -0.5186 
     49 N          27.4334    0.9028   -9.4217 N.am      8 UNK        -0.4240 
     50 CA         26.7905   -0.4118   -9.3307 C.3       8 UNK         0.0235 
     51 CB         25.4428   -0.2810   -8.6027 C.3       8 UNK        -0.2000 
     52 C          27.6913   -1.4523   -8.6434 C.2       8 UNK         0.4941 
     53 O          27.6787   -2.6190   -9.0347 O.2       8 UNK        -0.5273 
     54 N          28.4826   -1.0041   -7.6602 N.am      9 UNK        -0.4262 
     55 CA         29.4907   -1.8079   -6.9658 C.3       9 UNK         0.0264 
     56 CB         29.6264   -1.2900   -5.5283 C.3       9 UNK        -0.1955 
     57 C          30.8563   -1.8209   -7.6823 C.2       9 UNK         0.5031 
     58 O          31.7651   -2.5072   -7.2137 O.2       9 UNK        -0.5390 
     59 N          30.9753   -1.0779   -8.7933 N.am      10 UNK        -0.4204 
     60 CA         32.1658   -0.8809   -9.6262 C.3       10 UNK         0.0237 
     61 CB         32.5946   -2.2024  -10.3004 C.3       10 UNK        -0.1985 
     62 C          33.3163   -0.1728   -8.8818 C.2       10 UNK         0.4970 
     63 O          34.4805   -0.5303   -9.0732 O.2       10 UNK        -0.4914 
     64 N          32.9723    0.8308   -8.0663 N.am      11 UNK        -0.4285 
     65 CA         33.9091    1.6520   -7.2819 C.3       11 UNK         0.1007 
     66 C          33.6493    3.1818   -7.3978 C.2       11 UNK         0.5703 
     67 N          32.8357    3.6446   -8.3398 N.am      11 UNK        -0.7361 
     68 O          34.2198    3.9702   -6.6475 O.2       11 UNK        -0.4986 
     69 C69        34.0455    1.1441   -5.8208 C.3       12 UNK        -0.0947 
     70 S70        32.4740    1.1071   -4.8986 S.3       12 UNK        -0.2240 
     71 C71        33.0513    0.4289   -3.3147 C.3       12 UNK         0.0194 
     72 H72        30.5230   -6.4658   -8.2507 H         1 UNK         0.0906 
     73 H73        29.4425   -5.0762   -8.3962 H         1 UNK         0.0906 
     74 H74        30.7711   -5.0528   -7.2298 H         1 UNK         0.0906 
     75 H75        29.6375   -4.9234   -5.2482 H         1 UNK         0.3140 
     76 H76        28.2755   -7.2445   -4.2647 H         1 UNK         0.1085 
     77 H77        28.0754   -5.9146   -2.1486 H         1 UNK         0.0836 
     78 H78        29.7004   -5.9993   -2.7633 H         1 UNK         0.0836 
     79 H79        31.0648   -4.0432   -2.1440 H         1 UNK         0.0731 
     80 H80        29.9340   -3.8224   -0.8242 H         1 UNK         0.0731 
     81 H81        32.2312   -2.1553   -3.0761 H         1 UNK         0.1312 
     82 H82        31.2831    1.8175   -1.7800 H         1 UNK         0.1406 
     83 H83        28.8553   -1.4888   -0.5166 H         1 UNK         0.1631 
     84 H84        29.5227    2.2011   -0.1917 H         1 UNK         0.0717 
     85 H85        28.9074    0.8407    0.7118 H         1 UNK         0.0717 
     86 H86        27.5068    3.2226   -2.6823 H         1 UNK         0.0934 
     87 H87        28.9607    2.2730   -2.7464 H         1 UNK         0.0934 
     88 H88        27.7143    0.4080   -3.8880 H         1 UNK         0.0739 
     89 H89        25.5103    0.3213   -3.8184 H         1 UNK         0.3093 
     90 H90        23.1738    2.3973   -2.7981 H         1 UNK         0.0818 
     91 H91        22.6578    3.6011   -4.8600 H         1 UNK         0.0819 
     92 H92        22.8512    2.1537   -5.8299 H         1 UNK         0.0819 
     93 H93        21.5177    2.2788   -4.6811 H         1 UNK         0.0819 
     94 H94        22.9210    0.2455   -2.5643 H         1 UNK         0.3041 
     95 H95        23.1556   -1.9937   -2.8527 H         1 UNK         0.0784 
     96 H96        20.7914   -1.2587   -3.2572 H         1 UNK         0.0793 
     97 H97        20.8352   -1.9586   -4.8684 H         1 UNK         0.0793 
     98 H98        20.9461   -2.9961   -3.4456 H         1 UNK         0.0793 
     99 H99        22.7077   -3.5195   -5.2292 H         1 UNK         0.3024 
    100 H100       24.3270   -5.2326   -5.5731 H         1 UNK         0.1171 
    101 H101       25.6432   -3.0833   -7.3189 H         1 UNK         0.0786 
    102 H102       25.2693   -4.7190   -7.8574 H         1 UNK         0.0786 
    103 H103       23.9724   -3.6117   -7.4332 H         1 UNK         0.0786 
    104 H104       27.1498   -4.4049   -5.8716 H         1 UNK         0.2977 
    105 H105       29.4508    2.7498   -4.4482 H         1 UNK         0.3127 
    106 H106       30.4927    3.7509   -6.1197 H         1 UNK         0.0770 
    107 H107       27.6387    4.6247   -6.8435 H         1 UNK         0.0814 
    108 H108       29.1238    5.4603   -7.3107 H         1 UNK         0.0814 
    109 H109       28.6669    5.3620   -5.6249 H         1 UNK         0.0814 
    110 H110       28.5046    4.0414   -8.7280 H         1 UNK         0.2983 
    111 H111       30.1376    2.4831  -10.4205 H         1 UNK         0.0947 
    112 H112       28.4659    3.1129  -12.1723 H         1 UNK         0.0806 
    113 H113       28.9106    4.4955  -11.1874 H         1 UNK         0.0806 
    114 H114       27.3630    3.6881  -10.9300 H         1 UNK         0.0806 
    115 H115       27.1240    1.6128   -8.7699 H         1 UNK         0.3000 
    116 H116       26.5932   -0.7625  -10.3462 H         1 UNK         0.0850 
    117 H117       24.8918   -1.2212   -8.6311 H         1 UNK         0.0810 
    118 H118       24.8094    0.4744   -9.0675 H         1 UNK         0.0810 
    119 H119       25.5689   -0.0116   -7.5532 H         1 UNK         0.0810 
    120 H120       28.4396   -0.0220   -7.4162 H         1 UNK         0.3040 
    121 H121       29.1487   -2.8431   -6.9142 H         1 UNK         0.0766 
    122 H122       29.9090   -0.2380   -5.5023 H         1 UNK         0.0812 
    123 H123       30.3896   -1.8459   -4.9842 H         1 UNK         0.0812 
    124 H124       28.6932   -1.4090   -4.9788 H         1 UNK         0.0812 
    125 H125       30.1674   -0.5340   -9.0643 H         1 UNK         0.3205 
    126 H126       31.8614   -0.1969  -10.4198 H         1 UNK         0.0754 
    127 H127       33.3871   -2.0303  -11.0297 H         1 UNK         0.0769 
    128 H128       31.7621   -2.6641  -10.8313 H         1 UNK         0.0769 
    129 H129       32.9722   -2.9243   -9.5755 H         1 UNK         0.0769 
    130 H130       31.9869    1.0531   -7.9324 H         1 UNK         0.2981 
    131 H131       34.8988    1.5492   -7.7295 H         1 UNK         0.0541 
    132 H132       32.6967    4.6389   -8.4220 H         1 UNK         0.3459 
    133 H133       32.3912    3.0149   -8.9867 H         1 UNK         0.3459 
    134 H134       34.7683    1.7442   -5.2653 H         1 UNK         0.0612 
    135 H135       34.4493    0.1306   -5.8342 H         1 UNK         0.0612 
    136 H136       33.7790   -0.3630   -3.4988 H         1 UNK         0.0624 
    137 H137       33.5727    1.2072   -2.7558 H         1 UNK         0.0624 
@<TRIPOS>BOND
     1    1    2 1    
     2    1   72 1    
     3    1   73 1    
     4    1   74 1    
     5    2    3 2    
     6    2    4 am   BACKBONE|DICT|INTERRES
     7    4    5 1    
     8    4   75 1    
     9    5    6 1    
    10    5   35 1    
    11    5   76 1    
    12    6    7 1    
    13    6   77 1    
    14    6   78 1    
    15    7    8 1    
    16    8    9 1    
    17    8   79 1    
    18    8   80 1    
    19    9   10 ar   
    20    9   14 ar   
    21   10   11 ar   
    22   10   81 1    
    23   11   12 ar   
    24   11   71 1    
    25   12   13 ar   
    26   12   82 1    
    27   13   14 ar   
    28   13   15 1    
    29   14   83 1    
    30   15   16 1    
    31   15   84 1    
    32   15   85 1    
    33   16   17 1    
    34   17   18 1    
    35   17   86 1    
    36   17   87 1    
    37   18   19 1    
    38   18   37 1    
    39   18   88 1    
    40   19   20 am   BACKBONE|DICT|INTERRES
    41   19   89 1    
    42   20   21 2    
    43   20   22 1    
    44   22   23 1    
    45   22   24 1    
    46   22   90 1    
    47   23   91 1    
    48   23   92 1    
    49   23   93 1    
    50   24   25 am   BACKBONE|DICT|INTERRES
    51   24   94 1    
    52   25   26 2    
    53   25   27 1    
    54   27   28 1    
    55   27   29 1    
    56   27   95 1    
    57   28   96 1    
    58   28   97 1    
    59   28   98 1    
    60   29   30 am   BACKBONE|DICT|INTERRES
    61   29   99 1    
    62   30   31 2    
    63   30   32 1    
    64   32   33 1    
    65   32   34 1    
    66   32  100 1    
    67   33  101 1    
    68   33  102 1    
    69   33  103 1    
    70   34   35 am   BACKBONE|DICT|INTERRES
    71   34  104 1    
    72   35   36 2    
    73   37   38 2    
    74   37   39 am   BACKBONE|DICT|INTERRES
    75   39   40 1    
    76   39  105 1    
    77   40   41 1    
    78   40   42 1    
    79   40  106 1    
    80   41  107 1    
    81   41  108 1    
    82   41  109 1    
    83   42   43 2    
    84   42   44 am   BACKBONE|DICT|INTERRES
    85   44   45 1    
    86   44  110 1    
    87   45   46 1    
    88   45   47 1    
    89   45  111 1    
    90   46  112 1    
    91   46  113 1    
    92   46  114 1    
    93   47   48 2    
    94   47   49 am   BACKBONE|DICT|INTERRES
    95   49   50 1    
    96   49  115 1    
    97   50   51 1    
    98   50   52 1    
    99   50  116 1    
   100   51  117 1    
   101   51  118 1    
   102   51  119 1    
   103   52   53 2    
   104   52   54 am   BACKBONE|DICT|INTERRES
   105   54   55 1    
   106   54  120 1    
   107   55   56 1    
   108   55   57 1    
   109   55  121 1    
   110   56  122 1    
   111   56  123 1    
   112   56  124 1    
   113   57   58 2    
   114   57   59 am   BACKBONE|DICT|INTERRES
   115   59   60 1    
   116   59  125 1    
   117   60   61 1    
   118   60   62 1    
   119   60  126 1    
   120   61  127 1    
   121   61  128 1    
   122   61  129 1    
   123   62   63 2    
   124   62   64 am   BACKBONE|DICT|INTERRES
   125   64   65 1    
   126   64  130 1    
   127   65   66 1    
   128   65   69 1    
   129   65  131 1    
   130   66   67 am   BACKBONE|DICT|INTERRES
   131   66   68 2    
   132   67  132 1    
   133   67  133 1    
   134   69   70 1    
   135   69  134 1    
   136   69  135 1    
   137   70   71 1    
   138   71  136 1    
   139   71  137 1    
@<TRIPOS>SUBSTRUCTURE
     1 UNK         1 GROUP             0       ****    0 ROOT    
