@<TRIPOS>MOLECULE
3R137
137   139    1
SMALL
USER_CHARGES


@<TRIPOS>ATOM
      1 CA         29.6153    0.2420   -1.8255 C.3       0 UNK        -0.2020 
      2 C          29.0031   -0.9861   -1.1680 C.2       0 UNK         0.4855 
      3 O          28.5039   -0.8959   -0.0466 O.2       0 UNK        -0.5197 
      4 N          29.0446   -2.1293   -1.8631 N.am      1 UNK        -0.4892 
      5 CA         28.5263   -3.4380   -1.4413 C.3       1 UNK         0.0835 
      6 C6         29.3444   -4.0733   -0.2736 C.3       12 UNK        -0.0855 
      7 S7         29.9583   -5.7386   -0.7172 S.3       12 UNK        -0.2931 
      8 C8         31.6544   -5.3983   -1.3193 C.3       12 UNK         0.0378 
      9 C9         31.7005   -4.2778   -2.3530 C.ar      12 UNK        -0.0802 
     10 C10        32.4220   -3.1080   -2.0898 C.ar      12 UNK        -0.0944 
     11 C11        32.3888   -2.0348   -2.9856 C.ar      12 UNK        -0.0787 
     12 C12        31.6058   -2.1311   -4.1391 C.ar      12 UNK        -0.0862 
     13 C13        30.9039   -3.3032   -4.4274 C.ar      12 UNK        -0.0733 
     14 C14        30.9835   -4.3875   -3.5493 C.ar      12 UNK        -0.0832 
     15 C15        30.0340   -3.3836   -5.6695 C.3       12 UNK         0.0240 
     16 S16        28.2856   -3.0671   -5.2674 S.3       12 UNK        -0.2522 
     17 C17        27.5590   -3.1089   -6.9441 C.3       12 UNK        -0.0967 
     18 CA         26.8836   -1.8060   -7.4545 C.3       5 UNK         0.0660 
     19 N          25.4599   -1.7222   -7.1139 N.am      5 UNK        -0.4015 
     20 C          24.5806   -0.9850   -7.8102 C.2       4 UNK         0.4946 
     21 O          24.8916   -0.2922   -8.7799 O.2       4 UNK        -0.5353 
     22 CA         23.1196   -0.9964   -7.3347 C.3       4 UNK         0.0277 
     23 CB         22.4462   -2.3410   -7.6549 C.3       4 UNK        -0.1981 
     24 N          22.9939   -0.7042   -5.9072 N.am      4 UNK        -0.4209 
     25 C          23.2954    0.4749   -5.3447 C.2       3 UNK         0.4942 
     26 O          23.6615    1.4645   -5.9778 O.2       3 UNK        -0.5208 
     27 CA         23.2006    0.5583   -3.8102 C.3       3 UNK         0.0250 
     28 CB         21.7949    1.0122   -3.3848 C.3       3 UNK        -0.1990 
     29 N          23.5476   -0.6833   -3.1053 N.am      3 UNK        -0.4232 
     30 C          24.7091   -1.3395   -3.2283 C.2       2 UNK         0.4993 
     31 O          25.5998   -1.0212   -4.0229 O.2       2 UNK        -0.5286 
     32 CA         24.8981   -2.5777   -2.3469 C.3       2 UNK         0.0209 
     33 CB         24.1919   -3.8032   -2.9535 C.3       2 UNK        -0.1931 
     34 N          26.3296   -2.8250   -2.2644 N.am      2 UNK        -0.4546 
     35 C          26.9921   -3.4242   -1.2710 C.2       1 UNK         0.5154 
     36 O          26.4460   -3.9246   -0.2855 O.2       1 UNK        -0.5181 
     37 C          27.6289   -0.4992   -7.1143 C.2       5 UNK         0.5014 
     38 O          28.5154   -0.1035   -7.8710 O.2       5 UNK        -0.5248 
     39 N          27.2125    0.1881   -6.0398 N.am      6 UNK        -0.4434 
     40 CA         27.6935    1.5196   -5.6631 C.3       6 UNK         0.0363 
     41 CB         27.0961    1.9121   -4.3040 C.3       6 UNK        -0.1936 
     42 C          27.3865    2.6017   -6.7167 C.2       6 UNK         0.5081 
     43 O          28.1394    3.5692   -6.8180 O.2       6 UNK        -0.5248 
     44 N          26.3082    2.4221   -7.4907 N.am      7 UNK        -0.4718 
     45 CA         25.9801    3.2610   -8.6411 C.3       7 UNK         0.0273 
     46 CB         24.4585    3.2618   -8.8637 C.3       7 UNK        -0.1935 
     47 C          26.7226    2.7992   -9.9054 C.2       7 UNK         0.5018 
     48 O          27.3175    3.6316  -10.5905 O.2       7 UNK        -0.5186 
     49 N          26.6523    1.4946  -10.2086 N.am      8 UNK        -0.4240 
     50 CA         27.1479    0.9136  -11.4592 C.3       8 UNK         0.0235 
     51 CB         26.5040   -0.4663  -11.6730 C.3       8 UNK        -0.2000 
     52 C          28.6791    0.8090  -11.5545 C.2       8 UNK         0.4941 
     53 O          29.2341    1.1341  -12.6052 O.2       8 UNK        -0.5273 
     54 N          29.3259    0.3234  -10.4879 N.am      9 UNK        -0.4262 
     55 CA         30.7561   -0.0015  -10.4505 C.3       9 UNK         0.0264 
     56 CB         30.9118   -1.4875  -10.0822 C.3       9 UNK        -0.1955 
     57 C          31.5456    0.8632   -9.4566 C.2       9 UNK         0.5031 
     58 O          32.7752    0.8978   -9.5540 O.2       9 UNK        -0.5390 
     59 N          30.8523    1.5103   -8.5074 N.am      10 UNK        -0.4204 
     60 CA         31.3719    2.2984   -7.3825 C.3       10 UNK         0.0237 
     61 CB         32.2020    3.5138   -7.8476 C.3       10 UNK        -0.1985 
     62 C          32.1132    1.4175   -6.3676 C.2       10 UNK         0.4970 
     63 O          31.5790    1.1600   -5.2902 O.2       10 UNK        -0.4914 
     64 N          33.3023    0.9519   -6.7549 N.am      11 UNK        -0.4285 
     65 CA         34.1256   -0.0500   -6.0707 C.3       11 UNK         0.1007 
     66 C          35.1610   -0.7135   -7.0276 C.2       11 UNK         0.5703 
     67 N          35.0191   -0.6011   -8.3461 N.am      11 UNK        -0.7361 
     68 O          36.1084   -1.3538   -6.5791 O.2       11 UNK        -0.4986 
     69 C69        34.7225    0.4725   -4.7297 C.3       12 UNK        -0.0947 
     70 S70        34.8324   -0.8184   -3.4419 S.3       12 UNK        -0.2240 
     71 C71        33.1734   -0.7645   -2.6882 C.3       12 UNK         0.0194 
     72 H72        30.5676    0.4822   -1.3540 H         1 UNK         0.0906 
     73 H73        29.7900    0.0913   -2.8913 H         1 UNK         0.0906 
     74 H74        28.9547    1.1007   -1.7107 H         1 UNK         0.0906 
     75 H75        29.4969   -2.1342   -2.7685 H         1 UNK         0.3140 
     76 H76        28.6533   -4.0669   -2.3214 H         1 UNK         0.1085 
     77 H77        30.2032   -3.4525   -0.0141 H         1 UNK         0.0836 
     78 H78        28.7672   -4.1441    0.6493 H         1 UNK         0.0836 
     79 H79        32.2861   -5.1591   -0.4623 H         1 UNK         0.0731 
     80 H80        32.0653   -6.3082   -1.7587 H         1 UNK         0.0731 
     81 H81        32.9944   -3.0221   -1.1763 H         1 UNK         0.1312 
     82 H82        31.5321   -1.2907   -4.8120 H         1 UNK         0.1406 
     83 H83        30.4271   -5.2913   -3.7598 H         1 UNK         0.1631 
     84 H84        30.3710   -2.6601   -6.4143 H         1 UNK         0.0717 
     85 H85        30.1308   -4.3699   -6.1262 H         1 UNK         0.0717 
     86 H86        28.3442   -3.3849   -7.6501 H         1 UNK         0.0934 
     87 H87        26.8519   -3.9389   -6.9855 H         1 UNK         0.0934 
     88 H88        26.9202   -1.8778   -8.5439 H         1 UNK         0.0739 
     89 H89        25.1590   -2.2062   -6.2806 H         1 UNK         0.3093 
     90 H90        22.5902   -0.2144   -7.8839 H         1 UNK         0.0818 
     91 H91        21.3837   -2.3187   -7.4119 H         1 UNK         0.0819 
     92 H92        22.5276   -2.5734   -8.7178 H         1 UNK         0.0819 
     93 H93        22.8981   -3.1675   -7.1051 H         1 UNK         0.0819 
     94 H94        22.6938   -1.4569   -5.3056 H         1 UNK         0.3041 
     95 H95        23.9121    1.3196   -3.4856 H         1 UNK         0.0784 
     96 H96        21.5203    1.9458   -3.8783 H         1 UNK         0.0793 
     97 H97        21.0356    0.2724   -3.6418 H         1 UNK         0.0793 
     98 H98        21.7422    1.1900   -2.3105 H         1 UNK         0.0793 
     99 H99        22.8658   -1.0260   -2.4432 H         1 UNK         0.3024 
    100 H100       24.5059   -2.3682   -1.3490 H         1 UNK         0.1171 
    101 H101       24.3379   -4.6893   -2.3355 H         1 UNK         0.0786 
    102 H102       23.1165   -3.6403   -3.0335 H         1 UNK         0.0786 
    103 H103       24.5662   -4.0294   -3.9529 H         1 UNK         0.0786 
    104 H104       26.8551   -2.3886   -3.0143 H         1 UNK         0.2977 
    105 H105       26.5188   -0.2361   -5.4256 H         1 UNK         0.3127 
    106 H106       28.7778    1.4555   -5.5546 H         1 UNK         0.0770 
    107 H107       26.0160    2.0437   -4.3670 H         1 UNK         0.0814 
    108 H108       27.5201    2.8522   -3.9491 H         1 UNK         0.0814 
    109 H109       27.2966    1.1554   -3.5462 H         1 UNK         0.0814 
    110 H110       25.7076    1.6264   -7.3163 H         1 UNK         0.2983 
    111 H111       26.2835    4.2900   -8.4339 H         1 UNK         0.0947 
    112 H112       24.1884    3.8905   -9.7130 H         1 UNK         0.0806 
    113 H113       23.9337    3.6513   -7.9910 H         1 UNK         0.0806 
    114 H114       24.0723    2.2615   -9.0612 H         1 UNK         0.0806 
    115 H115       26.1041    0.8821   -9.6079 H         1 UNK         0.3000 
    116 H116       26.8173    1.5595  -12.2758 H         1 UNK         0.0850 
    117 H117       26.8257   -0.9065  -12.6179 H         1 UNK         0.0810 
    118 H118       25.4164   -0.3956  -11.7022 H         1 UNK         0.0810 
    119 H119       26.7704   -1.1651  -10.8797 H         1 UNK         0.0810 
    120 H120       28.8005    0.1110   -9.6416 H         1 UNK         0.3040 
    121 H121       31.2096    0.1529  -11.4316 H         1 UNK         0.0766 
    122 H122       30.4129   -2.1290  -10.8087 H         1 UNK         0.0812 
    123 H123       30.4932   -1.7064   -9.0989 H         1 UNK         0.0812 
    124 H124       31.9629   -1.7790  -10.0619 H         1 UNK         0.0812 
    125 H125       29.8621    1.2981   -8.4513 H         1 UNK         0.3205 
    126 H126       30.5029    2.6931   -6.8606 H         1 UNK         0.0754 
    127 H127       32.5326    4.1053   -6.9929 H         1 UNK         0.0769 
    128 H128       31.6075    4.1706   -8.4828 H         1 UNK         0.0769 
    129 H129       33.0927    3.2302   -8.4078 H         1 UNK         0.0769 
    130 H130       33.6070    1.1934   -7.6905 H         1 UNK         0.2981 
    131 H131       33.4454   -0.8678   -5.8411 H         1 UNK         0.0541 
    132 H132       34.2306   -0.1253   -8.7718 H         1 UNK         0.3459 
    133 H133       35.7046   -1.0412   -8.9392 H         1 UNK         0.3459 
    134 H134       35.7168    0.8931   -4.8883 H         1 UNK         0.0612 
    135 H135       34.1322    1.2948   -4.3242 H         1 UNK         0.0612 
    136 H136       32.6187    0.1077   -3.0348 H         1 UNK         0.0624 
    137 H137       33.2844   -0.6393   -1.6102 H         1 UNK         0.0624 
@<TRIPOS>BOND
     1    1    2 1    
     2    1   72 1    
     3    1   73 1    
     4    1   74 1    
     5    2    3 2    
     6    2    4 am   BACKBONE|DICT|INTERRES
     7    4    5 1    
     8    4   75 1    
     9    5    6 1    
    10    5   35 1    
    11    5   76 1    
    12    6    7 1    
    13    6   77 1    
    14    6   78 1    
    15    7    8 1    
    16    8    9 1    
    17    8   79 1    
    18    8   80 1    
    19    9   10 ar   
    20    9   14 ar   
    21   10   11 ar   
    22   10   81 1    
    23   11   12 ar   
    24   11   71 1    
    25   12   13 ar   
    26   12   82 1    
    27   13   14 ar   
    28   13   15 1    
    29   14   83 1    
    30   15   16 1    
    31   15   84 1    
    32   15   85 1    
    33   16   17 1    
    34   17   18 1    
    35   17   86 1    
    36   17   87 1    
    37   18   19 1    
    38   18   37 1    
    39   18   88 1    
    40   19   20 am   BACKBONE|DICT|INTERRES
    41   19   89 1    
    42   20   21 2    
    43   20   22 1    
    44   22   23 1    
    45   22   24 1    
    46   22   90 1    
    47   23   91 1    
    48   23   92 1    
    49   23   93 1    
    50   24   25 am   BACKBONE|DICT|INTERRES
    51   24   94 1    
    52   25   26 2    
    53   25   27 1    
    54   27   28 1    
    55   27   29 1    
    56   27   95 1    
    57   28   96 1    
    58   28   97 1    
    59   28   98 1    
    60   29   30 am   BACKBONE|DICT|INTERRES
    61   29   99 1    
    62   30   31 2    
    63   30   32 1    
    64   32   33 1    
    65   32   34 1    
    66   32  100 1    
    67   33  101 1    
    68   33  102 1    
    69   33  103 1    
    70   34   35 am   BACKBONE|DICT|INTERRES
    71   34  104 1    
    72   35   36 2    
    73   37   38 2    
    74   37   39 am   BACKBONE|DICT|INTERRES
    75   39   40 1    
    76   39  105 1    
    77   40   41 1    
    78   40   42 1    
    79   40  106 1    
    80   41  107 1    
    81   41  108 1    
    82   41  109 1    
    83   42   43 2    
    84   42   44 am   BACKBONE|DICT|INTERRES
    85   44   45 1    
    86   44  110 1    
    87   45   46 1    
    88   45   47 1    
    89   45  111 1    
    90   46  112 1    
    91   46  113 1    
    92   46  114 1    
    93   47   48 2    
    94   47   49 am   BACKBONE|DICT|INTERRES
    95   49   50 1    
    96   49  115 1    
    97   50   51 1    
    98   50   52 1    
    99   50  116 1    
   100   51  117 1    
   101   51  118 1    
   102   51  119 1    
   103   52   53 2    
   104   52   54 am   BACKBONE|DICT|INTERRES
   105   54   55 1    
   106   54  120 1    
   107   55   56 1    
   108   55   57 1    
   109   55  121 1    
   110   56  122 1    
   111   56  123 1    
   112   56  124 1    
   113   57   58 2    
   114   57   59 am   BACKBONE|DICT|INTERRES
   115   59   60 1    
   116   59  125 1    
   117   60   61 1    
   118   60   62 1    
   119   60  126 1    
   120   61  127 1    
   121   61  128 1    
   122   61  129 1    
   123   62   63 2    
   124   62   64 am   BACKBONE|DICT|INTERRES
   125   64   65 1    
   126   64  130 1    
   127   65   66 1    
   128   65   69 1    
   129   65  131 1    
   130   66   67 am   BACKBONE|DICT|INTERRES
   131   66   68 2    
   132   67  132 1    
   133   67  133 1    
   134   69   70 1    
   135   69  134 1    
   136   69  135 1    
   137   70   71 1    
   138   71  136 1    
   139   71  137 1    
@<TRIPOS>SUBSTRUCTURE
     1 UNK         1 GROUP             0       ****    0 ROOT    
