@<TRIPOS>MOLECULE
3R137
137   139    1
SMALL
USER_CHARGES


@<TRIPOS>ATOM
      1 CA         27.9909   -2.8606    2.2061 C.3       0 UNK        -0.2020 
      2 C          27.9519   -2.2326    0.8215 C.2       0 UNK         0.4855 
      3 O          27.6154   -2.9161   -0.1446 O.2       0 UNK        -0.5197 
      4 N          28.2909   -0.9391    0.7257 N.am      1 UNK        -0.4892 
      5 CA         28.3577   -0.0910   -0.4783 C.3       1 UNK         0.0835 
      6 C6         29.3313   -0.5947   -1.5746 C.3       12 UNK        -0.0855 
      7 S7         31.0535   -0.7861   -0.9975 S.3       12 UNK        -0.2931 
      8 C8         31.2704   -2.5981   -0.9881 C.3       12 UNK         0.0378 
      9 C9         31.0153   -3.2224   -2.3538 C.ar      12 UNK        -0.0802 
     10 C10        31.9017   -2.9983   -3.4112 C.ar      12 UNK        -0.0944 
     11 C11        31.6528   -3.5457   -4.6731 C.ar      12 UNK        -0.0787 
     12 C12        30.5069   -4.3232   -4.8732 C.ar      12 UNK        -0.0862 
     13 C13        29.6205   -4.5674   -3.8188 C.ar      12 UNK        -0.0733 
     14 C14        29.8855   -4.0206   -2.5608 C.ar      12 UNK        -0.0832 
     15 C15        28.3934   -5.4439   -4.0273 C.3       12 UNK         0.0240 
     16 S16        26.8389   -4.4972   -3.8880 S.3       12 UNK        -0.2522 
     17 C17        25.8954   -5.1244   -5.3265 C.3       12 UNK        -0.0967 
     18 CA         25.8007   -4.1803   -6.5591 C.3       5 UNK         0.0660 
     19 N          24.7587   -3.1571   -6.4121 N.am      5 UNK        -0.4015 
     20 C          23.9423   -2.7812   -7.4098 C.2       4 UNK         0.4946 
     21 O          23.9758   -3.2661   -8.5416 O.2       4 UNK        -0.5353 
     22 CA         22.9035   -1.6853   -7.1129 C.3       4 UNK         0.0277 
     23 CB         21.6267   -2.3019   -6.5187 C.3       4 UNK        -0.1981 
     24 N          23.3976   -0.6376   -6.2214 N.am      4 UNK        -0.4209 
     25 C          24.3611    0.2402   -6.5321 C.2       3 UNK         0.4942 
     26 O          24.9110    0.3007   -7.6313 O.2       3 UNK        -0.5208 
     27 CA         24.8120    1.2063   -5.4232 C.3       3 UNK         0.0250 
     28 CB         24.0704    2.5465   -5.5527 C.3       3 UNK        -0.1990 
     29 N          24.6478    0.6930   -4.0577 N.am      3 UNK        -0.4232 
     30 C          25.1836   -0.4411   -3.5866 C.2       2 UNK         0.4993 
     31 O          25.8335   -1.2308   -4.2768 O.2       2 UNK        -0.5286 
     32 CA         24.9265   -0.7606   -2.1067 C.3       2 UNK         0.0209 
     33 CB         24.1732   -2.0923   -1.9556 C.3       2 UNK        -0.1931 
     34 N          26.1907   -0.8337   -1.3801 N.am      2 UNK        -0.4546 
     35 C          26.9777    0.2111   -1.0984 C.2       1 UNK         0.5154 
     36 O          26.6551    1.3805   -1.3144 O.2       1 UNK        -0.5181 
     37 C          27.1444   -3.5412   -6.9613 C.2       5 UNK         0.5014 
     38 O          27.8794   -4.1284   -7.7565 O.2       5 UNK        -0.5248 
     39 N          27.4334   -2.3498   -6.4178 N.am      6 UNK        -0.4434 
     40 CA         28.6785   -1.6129   -6.6331 C.3       6 UNK         0.0363 
     41 CB         28.9311   -0.7241   -5.4050 C.3       6 UNK        -0.1936 
     42 C          28.7015   -0.7943   -7.9375 C.2       6 UNK         0.5081 
     43 O          29.7134   -0.1505   -8.2181 O.2       6 UNK        -0.5248 
     44 N          27.5910   -0.8024   -8.6922 N.am      7 UNK        -0.4718 
     45 CA         27.3612   -0.0971   -9.9599 C.3       7 UNK         0.0273 
     46 CB         28.2303   -0.7043  -11.0814 C.3       7 UNK        -0.1935 
     47 C          27.5500    1.4220   -9.8068 C.2       7 UNK         0.5018 
     48 O          28.3920    2.0145  -10.4811 O.2       7 UNK        -0.5186 
     49 N          26.8050    2.0060   -8.8571 N.am      8 UNK        -0.4240 
     50 CA         26.8937    3.4026   -8.4041 C.3       8 UNK         0.0235 
     51 CB         26.4046    4.3690   -9.5037 C.3       8 UNK        -0.2000 
     52 C          28.2892    3.7708   -7.8544 C.2       8 UNK         0.4941 
     53 O          28.7440    4.9021   -8.0305 O.2       8 UNK        -0.5273 
     54 N          28.9359    2.7917   -7.2039 N.am      9 UNK        -0.4262 
     55 CA         30.2854    2.8259   -6.6297 C.3       9 UNK         0.0264 
     56 CB         30.3963    3.8832   -5.5104 C.3       9 UNK        -0.1955 
     57 C          31.4142    2.9336   -7.6744 C.2       9 UNK         0.5031 
     58 O          32.5218    3.3443   -7.3208 O.2       9 UNK        -0.5390 
     59 N          31.1545    2.5204   -8.9256 N.am      10 UNK        -0.4204 
     60 CA         32.1445    2.4816  -10.0092 C.3       10 UNK         0.0237 
     61 CB         31.4531    2.1493  -11.3399 C.3       10 UNK        -0.1985 
     62 C          33.3080    1.5071   -9.7529 C.2       10 UNK         0.4970 
     63 O          34.3979    1.7305  -10.2818 O.2       10 UNK        -0.4914 
     64 N          33.0737    0.4688   -8.9388 N.am      11 UNK        -0.4285 
     65 CA         34.1145   -0.4419   -8.4393 C.3       11 UNK         0.1007 
     66 C          35.0668    0.1713   -7.3667 C.2       11 UNK         0.5703 
     67 N          34.8216    1.3719   -6.8512 N.am      11 UNK        -0.7361 
     68 O          36.0628   -0.4525   -7.0072 O.2       11 UNK        -0.4986 
     69 C69        33.5187   -1.8050   -8.0013 C.3       12 UNK        -0.0947 
     70 S70        32.3649   -1.6903   -6.5936 S.3       12 UNK        -0.2240 
     71 C71        32.6310   -3.3089   -5.8135 C.3       12 UNK         0.0194 
     72 H72        27.0027   -3.2314    2.4770 H         1 UNK         0.0906 
     73 H73        28.3086   -2.1507    2.9696 H         1 UNK         0.0906 
     74 H74        28.6843   -3.7011    2.2154 H         1 UNK         0.0906 
     75 H75        28.5338   -0.4526    1.5779 H         1 UNK         0.3140 
     76 H76        28.7425    0.8688   -0.1286 H         1 UNK         0.1085 
     77 H77        28.9656   -1.5267   -2.0036 H         1 UNK         0.0836 
     78 H78        29.3580    0.1148   -2.4041 H         1 UNK         0.0836 
     79 H79        30.6138   -3.0334   -0.2340 H         1 UNK         0.0731 
     80 H80        32.2889   -2.8294   -0.6733 H         1 UNK         0.0731 
     81 H81        32.7785   -2.3847   -3.2549 H         1 UNK         0.1312 
     82 H82        30.3085   -4.7425   -5.8504 H         1 UNK         0.1406 
     83 H83        29.1954   -4.2031   -1.7481 H         1 UNK         0.1631 
     84 H84        28.3875   -6.2431   -3.2849 H         1 UNK         0.0717 
     85 H85        28.4560   -5.9339   -4.9995 H         1 UNK         0.0717 
     86 H86        26.3181   -6.0800   -5.6396 H         1 UNK         0.0934 
     87 H87        24.8909   -5.3736   -4.9808 H         1 UNK         0.0934 
     88 H88        25.5210   -4.8268   -7.3942 H         1 UNK         0.0739 
     89 H89        24.7243   -2.6718   -5.5239 H         1 UNK         0.3093 
     90 H90        22.6430   -1.2153   -8.0639 H         1 UNK         0.0818 
     91 H91        21.2233   -3.0726   -7.1773 H         1 UNK         0.0819 
     92 H92        21.8127   -2.7669   -5.5496 H         1 UNK         0.0819 
     93 H93        20.8469   -1.5514   -6.3878 H         1 UNK         0.0819 
     94 H94        22.9983   -0.5974   -5.2954 H         1 UNK         0.3041 
     95 H95        25.8781    1.3877   -5.5744 H         1 UNK         0.0784 
     96 H96        24.1293    2.9370   -6.5694 H         1 UNK         0.0793 
     97 H97        23.0118    2.4461   -5.3097 H         1 UNK         0.0793 
     98 H98        24.4968    3.3015   -4.8917 H         1 UNK         0.0793 
     99 H99        24.1364    1.2857   -3.4192 H         1 UNK         0.3024 
    100 H100       24.3185    0.0308   -1.6628 H         1 UNK         0.1171 
    101 H101       23.2216   -2.0680   -2.4879 H         1 UNK         0.0786 
    102 H102       24.7487   -2.9294   -2.3524 H         1 UNK         0.0786 
    103 H103       23.9548   -2.3063   -0.9092 H         1 UNK         0.0786 
    104 H104       26.5537   -1.7592   -1.1614 H         1 UNK         0.2977 
    105 H105       26.8031   -1.9658   -5.7159 H         1 UNK         0.3127 
    106 H106       29.4943   -2.3337   -6.7000 H         1 UNK         0.0770 
    107 H107       28.1881    0.0685   -5.3131 H         1 UNK         0.0814 
    108 H108       29.9157   -0.2610   -5.4536 H         1 UNK         0.0814 
    109 H109       28.9073   -1.3156   -4.4897 H         1 UNK         0.0814 
    110 H110       26.7970   -1.3135   -8.3316 H         1 UNK         0.2983 
    111 H111       26.3145   -0.2550  -10.2257 H         1 UNK         0.0947 
    112 H112       29.2952   -0.5891  -10.8781 H         1 UNK         0.0806 
    113 H113       28.0276   -0.2210  -12.0379 H         1 UNK         0.0806 
    114 H114       28.0280   -1.7681  -11.2054 H         1 UNK         0.0806 
    115 H115       26.1289    1.4158   -8.3718 H         1 UNK         0.3000 
    116 H116       26.2108    3.4952   -7.5598 H         1 UNK         0.0850 
    117 H117       26.3419    5.3908   -9.1274 H         1 UNK         0.0810 
    118 H118       25.4116    4.0948   -9.8595 H         1 UNK         0.0810 
    119 H119       27.0778    4.3802  -10.3615 H         1 UNK         0.0810 
    120 H120       28.4852    1.8885   -7.1749 H         1 UNK         0.3040 
    121 H121       30.4301    1.8532   -6.1615 H         1 UNK         0.0766 
    122 H122       30.3508    4.8985   -5.9050 H         1 UNK         0.0812 
    123 H123       31.3417    3.7879   -4.9748 H         1 UNK         0.0812 
    124 H124       29.5985    3.7704   -4.7765 H         1 UNK         0.0812 
    125 H125       30.2291    2.1668   -9.1428 H         1 UNK         0.3205 
    126 H126       32.5756    3.4813  -10.0931 H         1 UNK         0.0754 
    127 H127       32.1712    2.1223  -12.1606 H         1 UNK         0.0769 
    128 H128       30.7030    2.8986  -11.5936 H         1 UNK         0.0769 
    129 H129       30.9594    1.1777  -11.3046 H         1 UNK         0.0769 
    130 H130       32.1472    0.3430   -8.5517 H         1 UNK         0.2981 
    131 H131       34.7640   -0.6616   -9.2887 H         1 UNK         0.0541 
    132 H132       35.4566    1.7466   -6.1651 H         1 UNK         0.3459 
    133 H133       34.0146    1.9147   -7.1353 H         1 UNK         0.3459 
    134 H134       34.3226   -2.5008   -7.7541 H         1 UNK         0.0612 
    135 H135       32.9829   -2.2583   -8.8366 H         1 UNK         0.0612 
    136 H136       33.6551   -3.3660   -5.4415 H         1 UNK         0.0624 
    137 H137       32.5294   -4.0916   -6.5670 H         1 UNK         0.0624 
@<TRIPOS>BOND
     1    1    2 1    
     2    1   72 1    
     3    1   73 1    
     4    1   74 1    
     5    2    3 2    
     6    2    4 am   BACKBONE|DICT|INTERRES
     7    4    5 1    
     8    4   75 1    
     9    5    6 1    
    10    5   35 1    
    11    5   76 1    
    12    6    7 1    
    13    6   77 1    
    14    6   78 1    
    15    7    8 1    
    16    8    9 1    
    17    8   79 1    
    18    8   80 1    
    19    9   10 ar   
    20    9   14 ar   
    21   10   11 ar   
    22   10   81 1    
    23   11   12 ar   
    24   11   71 1    
    25   12   13 ar   
    26   12   82 1    
    27   13   14 ar   
    28   13   15 1    
    29   14   83 1    
    30   15   16 1    
    31   15   84 1    
    32   15   85 1    
    33   16   17 1    
    34   17   18 1    
    35   17   86 1    
    36   17   87 1    
    37   18   19 1    
    38   18   37 1    
    39   18   88 1    
    40   19   20 am   BACKBONE|DICT|INTERRES
    41   19   89 1    
    42   20   21 2    
    43   20   22 1    
    44   22   23 1    
    45   22   24 1    
    46   22   90 1    
    47   23   91 1    
    48   23   92 1    
    49   23   93 1    
    50   24   25 am   BACKBONE|DICT|INTERRES
    51   24   94 1    
    52   25   26 2    
    53   25   27 1    
    54   27   28 1    
    55   27   29 1    
    56   27   95 1    
    57   28   96 1    
    58   28   97 1    
    59   28   98 1    
    60   29   30 am   BACKBONE|DICT|INTERRES
    61   29   99 1    
    62   30   31 2    
    63   30   32 1    
    64   32   33 1    
    65   32   34 1    
    66   32  100 1    
    67   33  101 1    
    68   33  102 1    
    69   33  103 1    
    70   34   35 am   BACKBONE|DICT|INTERRES
    71   34  104 1    
    72   35   36 2    
    73   37   38 2    
    74   37   39 am   BACKBONE|DICT|INTERRES
    75   39   40 1    
    76   39  105 1    
    77   40   41 1    
    78   40   42 1    
    79   40  106 1    
    80   41  107 1    
    81   41  108 1    
    82   41  109 1    
    83   42   43 2    
    84   42   44 am   BACKBONE|DICT|INTERRES
    85   44   45 1    
    86   44  110 1    
    87   45   46 1    
    88   45   47 1    
    89   45  111 1    
    90   46  112 1    
    91   46  113 1    
    92   46  114 1    
    93   47   48 2    
    94   47   49 am   BACKBONE|DICT|INTERRES
    95   49   50 1    
    96   49  115 1    
    97   50   51 1    
    98   50   52 1    
    99   50  116 1    
   100   51  117 1    
   101   51  118 1    
   102   51  119 1    
   103   52   53 2    
   104   52   54 am   BACKBONE|DICT|INTERRES
   105   54   55 1    
   106   54  120 1    
   107   55   56 1    
   108   55   57 1    
   109   55  121 1    
   110   56  122 1    
   111   56  123 1    
   112   56  124 1    
   113   57   58 2    
   114   57   59 am   BACKBONE|DICT|INTERRES
   115   59   60 1    
   116   59  125 1    
   117   60   61 1    
   118   60   62 1    
   119   60  126 1    
   120   61  127 1    
   121   61  128 1    
   122   61  129 1    
   123   62   63 2    
   124   62   64 am   BACKBONE|DICT|INTERRES
   125   64   65 1    
   126   64  130 1    
   127   65   66 1    
   128   65   69 1    
   129   65  131 1    
   130   66   67 am   BACKBONE|DICT|INTERRES
   131   66   68 2    
   132   67  132 1    
   133   67  133 1    
   134   69   70 1    
   135   69  134 1    
   136   69  135 1    
   137   70   71 1    
   138   71  136 1    
   139   71  137 1    
@<TRIPOS>SUBSTRUCTURE
     1 UNK         1 GROUP             0       ****    0 ROOT    
