@<TRIPOS>MOLECULE
3R137
137   139    1
SMALL
USER_CHARGES


@<TRIPOS>ATOM
      1 CA         29.6508   -3.4960   -4.4479 C.3       0 UNK        -0.2020 
      2 C          28.9975   -4.2752   -3.3227 C.2       0 UNK         0.4855 
      3 O          28.5112   -5.3849   -3.5392 O.2       0 UNK        -0.5197 
      4 N          28.9834   -3.6941   -2.1181 N.am      1 UNK        -0.4892 
      5 CA         28.4663   -4.3194   -0.8934 C.3       1 UNK         0.0835 
      6 C6         29.1784   -3.7824    0.3752 C.3       12 UNK        -0.0855 
      7 S7         30.9546   -4.2251    0.3884 S.3       12 UNK        -0.2931 
      8 C8         31.7966   -2.6100    0.4458 C.3       12 UNK         0.0378 
      9 C9         31.6650   -1.8458   -0.8632 C.ar      12 UNK        -0.0802 
     10 C10        32.5182   -2.1176   -1.9385 C.ar      12 UNK        -0.0944 
     11 C11        32.4006   -1.4190   -3.1470 C.ar      12 UNK        -0.0787 
     12 C12        31.3965   -0.4481   -3.2685 C.ar      12 UNK        -0.0862 
     13 C13        30.5364   -0.1744   -2.2021 C.ar      12 UNK        -0.0733 
     14 C14        30.6879   -0.8593   -0.9965 C.ar      12 UNK        -0.0832 
     15 C15        29.4105    0.8288   -2.3600 C.3       12 UNK         0.0240 
     16 S16        27.8290   -0.0533   -2.4784 S.3       12 UNK        -0.2522 
     17 C17        26.7543    1.2511   -3.1538 C.3       12 UNK        -0.0967 
     18 CA         26.7438    1.2308   -4.7005 C.3       5 UNK         0.0660 
     19 N          26.3047   -0.0623   -5.2364 N.am      5 UNK        -0.4015 
     20 C          26.4199   -0.4412   -6.5178 C.2       4 UNK         0.4946 
     21 O          26.9656    0.2511   -7.3779 O.2       4 UNK        -0.5353 
     22 CA         25.7696   -1.7750   -6.9363 C.3       4 UNK         0.0277 
     23 CB         26.8292   -2.8847   -7.0034 C.3       4 UNK        -0.1981 
     24 N          24.6702   -2.2122   -6.0682 N.am      4 UNK        -0.4209 
     25 C          23.5707   -1.5000   -5.7796 C.2       3 UNK         0.4942 
     26 O          23.3140   -0.4104   -6.2922 O.2       3 UNK        -0.5208 
     27 CA         22.6328   -2.0528   -4.6893 C.3       3 UNK         0.0250 
     28 CB         21.4377   -2.7742   -5.3326 C.3       3 UNK        -0.1990 
     29 N          23.2594   -2.9435   -3.6995 N.am      3 UNK        -0.4232 
     30 C          24.3420   -2.6757   -2.9519 C.2       2 UNK         0.4993 
     31 O          25.0083   -1.6470   -3.0736 O.2       2 UNK        -0.5286 
     32 CA         24.7672   -3.7329   -1.9178 C.3       2 UNK         0.0209 
     33 CB         24.2718   -5.1594   -2.2601 C.3       2 UNK        -0.1931 
     34 N          26.2252   -3.7192   -1.7787 N.am      2 UNK        -0.4546 
     35 C          26.9227   -4.2718   -0.7765 C.2       1 UNK         0.5154 
     36 O          26.3854   -4.7736    0.2130 O.2       1 UNK        -0.5181 
     37 C          25.9509    2.4328   -5.2611 C.2       5 UNK         0.5014 
     38 O          26.4280    3.5606   -5.1323 O.2       5 UNK        -0.5248 
     39 N          24.7875    2.1990   -5.8925 N.am      6 UNK        -0.4434 
     40 CA         24.0621    3.2175   -6.6578 C.3       6 UNK         0.0363 
     41 CB         22.6362    2.7279   -6.9551 C.3       6 UNK        -0.1936 
     42 C          24.7856    3.5959   -7.9645 C.2       6 UNK         0.5081 
     43 O          24.6706    4.7410   -8.4021 O.2       6 UNK        -0.5248 
     44 N          25.5211    2.6424   -8.5558 N.am      7 UNK        -0.4718 
     45 CA         26.3927    2.8687   -9.7095 C.3       7 UNK         0.0273 
     46 CB         26.4532    1.5995  -10.5759 C.3       7 UNK        -0.1935 
     47 C          27.7977    3.2872   -9.2536 C.2       7 UNK         0.5018 
     48 O          28.3552    4.2306   -9.8151 O.2       7 UNK        -0.5186 
     49 N          28.3373    2.5796   -8.2478 N.am      8 UNK        -0.4240 
     50 CA         29.6216    2.7680   -7.5531 C.3       8 UNK         0.0235 
     51 CB         29.6759    4.1315   -6.8386 C.3       8 UNK        -0.2000 
     52 C          30.8846    2.5493   -8.4086 C.2       8 UNK         0.4941 
     53 O          31.8621    2.0026   -7.8976 O.2       8 UNK        -0.5273 
     54 N          30.8637    2.9690   -9.6784 N.am      9 UNK        -0.4262 
     55 CA         31.9259    2.7428  -10.6569 C.3       9 UNK         0.0264 
     56 CB         31.6370    3.5688  -11.9210 C.3       9 UNK        -0.1955 
     57 C          32.0459    1.2479  -10.9945 C.2       9 UNK         0.5031 
     58 O          31.0380    0.6281  -11.3432 O.2       9 UNK        -0.5390 
     59 N          33.2711    0.7127  -10.8869 N.am      10 UNK        -0.4204 
     60 CA         33.6452   -0.6907  -11.1127 C.3       10 UNK         0.0237 
     61 CB         33.5396   -1.0477  -12.6117 C.3       10 UNK        -0.1985 
     62 C          32.8793   -1.6739  -10.2017 C.2       10 UNK         0.4970 
     63 O          32.3959   -2.7045  -10.6746 O.2       10 UNK        -0.4914 
     64 N          32.7791   -1.3306   -8.9101 N.am      11 UNK        -0.4285 
     65 CA         32.0834   -2.1179   -7.8792 C.3       11 UNK         0.1007 
     66 C          32.7111   -3.5025   -7.5368 C.2       11 UNK         0.5703 
     67 N          33.9483   -3.7889   -7.9252 N.am      11 UNK        -0.7361 
     68 O          32.0569   -4.3330   -6.9117 O.2       11 UNK        -0.4986 
     69 C69        31.8138   -1.2716   -6.6077 C.3       12 UNK        -0.0947 
     70 S70        33.3240   -0.6854   -5.7589 S.3       12 UNK        -0.2240 
     71 C71        33.3712   -1.7662   -4.2820 C.3       12 UNK         0.0194 
     72 H72        29.3420   -2.4506   -4.4307 H         1 UNK         0.0906 
     73 H73        30.7340   -3.5451   -4.3444 H         1 UNK         0.0906 
     74 H74        29.3900   -3.9175   -5.4182 H         1 UNK         0.0906 
     75 H75        29.4131   -2.7860   -1.9982 H         1 UNK         0.3140 
     76 H76        28.6976   -5.3858   -0.9503 H         1 UNK         0.1085 
     77 H77        28.7402   -4.2160    1.2762 H         1 UNK         0.0836 
     78 H78        29.0446   -2.7047    0.4691 H         1 UNK         0.0836 
     79 H79        32.8530   -2.7739    0.6635 H         1 UNK         0.0731 
     80 H80        31.4046   -2.0243    1.2789 H         1 UNK         0.0731 
     81 H81        33.2777   -2.8807   -1.8328 H         1 UNK         0.1312 
     82 H82        31.2642    0.0956   -4.1921 H         1 UNK         0.1406 
     83 H83        30.0226   -0.6388   -0.1725 H         1 UNK         0.1631 
     84 H84        29.5624    1.4399   -3.2512 H         1 UNK         0.0717 
     85 H85        29.3896    1.5111   -1.5089 H         1 UNK         0.0717 
     86 H86        25.7464    1.0994   -2.7623 H         1 UNK         0.0934 
     87 H87        27.0877    2.2186   -2.7724 H         1 UNK         0.0934 
     88 H88        27.7725    1.3748   -5.0376 H         1 UNK         0.0739 
     89 H89        25.8511   -0.6816   -4.5690 H         1 UNK         0.3093 
     90 H90        25.3588   -1.6282   -7.9372 H         1 UNK         0.0818 
     91 H91        26.4239   -3.7942   -7.4472 H         1 UNK         0.0819 
     92 H92        27.6817   -2.5807   -7.6131 H         1 UNK         0.0819 
     93 H93        27.2057   -3.1345   -6.0119 H         1 UNK         0.0819 
     94 H94        24.7920   -3.0953   -5.5950 H         1 UNK         0.3041 
     95 H95        22.2522   -1.1896   -4.1394 H         1 UNK         0.0784 
     96 H96        20.9338   -2.1294   -6.0546 H         1 UNK         0.0793 
     97 H97        21.7479   -3.6759   -5.8622 H         1 UNK         0.0793 
     98 H98        20.6959   -3.0597   -4.5865 H         1 UNK         0.0793 
     99 H99        22.7904   -3.8238   -3.5411 H         1 UNK         0.3024 
    100 H100       24.3304   -3.4275   -0.9644 H         1 UNK         0.1171 
    101 H101       24.6047   -5.8882   -1.5212 H         1 UNK         0.0786 
    102 H102       23.1829   -5.2170   -2.2727 H         1 UNK         0.0786 
    103 H103       24.6386   -5.4904   -3.2328 H         1 UNK         0.0786 
    104 H104       26.7289   -3.2455   -2.5169 H         1 UNK         0.2977 
    105 H105       24.4260    1.2509   -5.9470 H         1 UNK         0.3127 
    106 H106       23.9895    4.1184   -6.0444 H         1 UNK         0.0770 
    107 H107       22.6370    1.8513   -7.6040 H         1 UNK         0.0814 
    108 H108       22.0564    3.5031   -7.4578 H         1 UNK         0.0814 
    109 H109       22.1052    2.4670   -6.0395 H         1 UNK         0.0814 
    110 H110       25.5981    1.7387   -8.1055 H         1 UNK         0.2983 
    111 H111       25.9855    3.6749  -10.3242 H         1 UNK         0.0947 
    112 H112       26.8545    0.7462  -10.0282 H         1 UNK         0.0806 
    113 H113       27.0912    1.7543  -11.4472 H         1 UNK         0.0806 
    114 H114       25.4643    1.3251  -10.9434 H         1 UNK         0.0806 
    115 H115       27.8067    1.7700   -7.9279 H         1 UNK         0.3000 
    116 H116       29.6428    1.9960   -6.7820 H         1 UNK         0.0850 
    117 H117       28.8360    4.2556   -6.1557 H         1 UNK         0.0810 
    118 H118       29.6592    4.9626   -7.5442 H         1 UNK         0.0810 
    119 H119       30.5888    4.2254   -6.2489 H         1 UNK         0.0810 
    120 H120       30.0172    3.4303  -10.0014 H         1 UNK         0.3040 
    121 H121       32.8645    3.0939  -10.2228 H         1 UNK         0.0766 
    122 H122       32.4223    3.4310  -12.6655 H         1 UNK         0.0812 
    123 H123       31.5862    4.6343  -11.6961 H         1 UNK         0.0812 
    124 H124       30.6929    3.2789  -12.3845 H         1 UNK         0.0812 
    125 H125       34.0225    1.3163  -10.5808 H         1 UNK         0.3205 
    126 H126       34.6957   -0.7776  -10.8309 H         1 UNK         0.0754 
    127 H127       33.9255   -2.0498  -12.8038 H         1 UNK         0.0769 
    128 H128       34.1174   -0.3568  -13.2256 H         1 UNK         0.0769 
    129 H129       32.5072   -1.0244  -12.9625 H         1 UNK         0.0769 
    130 H130       33.1868   -0.4620   -8.5950 H         1 UNK         0.2981 
    131 H131       31.1038   -2.3539   -8.2994 H         1 UNK         0.0541 
    132 H132       34.3392   -4.6901   -7.7012 H         1 UNK         0.3459 
    133 H133       34.4951   -3.1118   -8.4312 H         1 UNK         0.3459 
    134 H134       31.2210   -0.3960   -6.8738 H         1 UNK         0.0612 
    135 H135       31.1949   -1.8273   -5.9073 H         1 UNK         0.0612 
    136 H136       34.3870   -1.7285   -3.8862 H         1 UNK         0.0624 
    137 H137       33.2035   -2.7985   -4.5916 H         1 UNK         0.0624 
@<TRIPOS>BOND
     1    1    2 1    
     2    1   72 1    
     3    1   73 1    
     4    1   74 1    
     5    2    3 2    
     6    2    4 am   BACKBONE|DICT|INTERRES
     7    4    5 1    
     8    4   75 1    
     9    5    6 1    
    10    5   35 1    
    11    5   76 1    
    12    6    7 1    
    13    6   77 1    
    14    6   78 1    
    15    7    8 1    
    16    8    9 1    
    17    8   79 1    
    18    8   80 1    
    19    9   10 ar   
    20    9   14 ar   
    21   10   11 ar   
    22   10   81 1    
    23   11   12 ar   
    24   11   71 1    
    25   12   13 ar   
    26   12   82 1    
    27   13   14 ar   
    28   13   15 1    
    29   14   83 1    
    30   15   16 1    
    31   15   84 1    
    32   15   85 1    
    33   16   17 1    
    34   17   18 1    
    35   17   86 1    
    36   17   87 1    
    37   18   19 1    
    38   18   37 1    
    39   18   88 1    
    40   19   20 am   BACKBONE|DICT|INTERRES
    41   19   89 1    
    42   20   21 2    
    43   20   22 1    
    44   22   23 1    
    45   22   24 1    
    46   22   90 1    
    47   23   91 1    
    48   23   92 1    
    49   23   93 1    
    50   24   25 am   BACKBONE|DICT|INTERRES
    51   24   94 1    
    52   25   26 2    
    53   25   27 1    
    54   27   28 1    
    55   27   29 1    
    56   27   95 1    
    57   28   96 1    
    58   28   97 1    
    59   28   98 1    
    60   29   30 am   BACKBONE|DICT|INTERRES
    61   29   99 1    
    62   30   31 2    
    63   30   32 1    
    64   32   33 1    
    65   32   34 1    
    66   32  100 1    
    67   33  101 1    
    68   33  102 1    
    69   33  103 1    
    70   34   35 am   BACKBONE|DICT|INTERRES
    71   34  104 1    
    72   35   36 2    
    73   37   38 2    
    74   37   39 am   BACKBONE|DICT|INTERRES
    75   39   40 1    
    76   39  105 1    
    77   40   41 1    
    78   40   42 1    
    79   40  106 1    
    80   41  107 1    
    81   41  108 1    
    82   41  109 1    
    83   42   43 2    
    84   42   44 am   BACKBONE|DICT|INTERRES
    85   44   45 1    
    86   44  110 1    
    87   45   46 1    
    88   45   47 1    
    89   45  111 1    
    90   46  112 1    
    91   46  113 1    
    92   46  114 1    
    93   47   48 2    
    94   47   49 am   BACKBONE|DICT|INTERRES
    95   49   50 1    
    96   49  115 1    
    97   50   51 1    
    98   50   52 1    
    99   50  116 1    
   100   51  117 1    
   101   51  118 1    
   102   51  119 1    
   103   52   53 2    
   104   52   54 am   BACKBONE|DICT|INTERRES
   105   54   55 1    
   106   54  120 1    
   107   55   56 1    
   108   55   57 1    
   109   55  121 1    
   110   56  122 1    
   111   56  123 1    
   112   56  124 1    
   113   57   58 2    
   114   57   59 am   BACKBONE|DICT|INTERRES
   115   59   60 1    
   116   59  125 1    
   117   60   61 1    
   118   60   62 1    
   119   60  126 1    
   120   61  127 1    
   121   61  128 1    
   122   61  129 1    
   123   62   63 2    
   124   62   64 am   BACKBONE|DICT|INTERRES
   125   64   65 1    
   126   64  130 1    
   127   65   66 1    
   128   65   69 1    
   129   65  131 1    
   130   66   67 am   BACKBONE|DICT|INTERRES
   131   66   68 2    
   132   67  132 1    
   133   67  133 1    
   134   69   70 1    
   135   69  134 1    
   136   69  135 1    
   137   70   71 1    
   138   71  136 1    
   139   71  137 1    
@<TRIPOS>SUBSTRUCTURE
     1 UNK         1 GROUP             0       ****    0 ROOT    
