@<TRIPOS>MOLECULE
3R137
137   139    1
SMALL
USER_CHARGES


@<TRIPOS>ATOM
      1 CA         26.6496   -6.6751   -2.4868 C.3       0 UNK        -0.2020 
      2 C          26.3405   -5.9122   -1.2075 C.2       0 UNK         0.4855 
      3 O          25.3541   -6.2152   -0.5365 O.2       0 UNK        -0.5197 
      4 N          27.1795   -4.9267   -0.8626 N.am      1 UNK        -0.4892 
      5 CA         27.0200   -4.0495    0.3051 C.3       1 UNK         0.0835 
      6 C6         28.3312   -3.2902    0.6420 C.3       12 UNK        -0.0855 
      7 S7         29.0185   -2.3456   -0.7667 S.3       12 UNK        -0.2931 
      8 C8         30.4189   -3.3986   -1.2577 C.3       12 UNK         0.0378 
      9 C9         30.7315   -3.2190   -2.7336 C.ar      12 UNK        -0.0802 
     10 C10        31.7621   -2.3678   -3.1457 C.ar      12 UNK        -0.0944 
     11 C11        32.0537   -2.2206   -4.5048 C.ar      12 UNK        -0.0787 
     12 C12        31.2856   -2.9090   -5.4474 C.ar      12 UNK        -0.0862 
     13 C13        30.2403   -3.7501   -5.0553 C.ar      12 UNK        -0.0733 
     14 C14        29.9872   -3.9174   -3.6900 C.ar      12 UNK        -0.0832 
     15 C15        29.4442   -4.4877   -6.1340 C.3       12 UNK         0.0240 
     16 S16        27.7139   -4.9191   -5.7177 S.3       12 UNK        -0.2522 
     17 C17        26.9582   -3.3409   -5.1987 C.3       12 UNK        -0.0967 
     18 CA         26.6395   -2.3643   -6.3641 C.3       5 UNK         0.0660 
     19 N          25.4231   -1.5884   -6.1044 N.am      5 UNK        -0.4015 
     20 C          24.7954   -0.8163   -7.0050 C.2       4 UNK         0.4946 
     21 O          25.1338   -0.7238   -8.1843 O.2       4 UNK        -0.5353 
     22 CA         23.6104    0.0276   -6.5008 C.3       4 UNK         0.0277 
     23 CB         22.3006   -0.7701   -6.6016 C.3       4 UNK        -0.1981 
     24 N          23.7849    0.5102   -5.1282 N.am      4 UNK        -0.4209 
     25 C          24.7522    1.3512   -4.7334 C.2       3 UNK         0.4942 
     26 O          25.5674    1.8615   -5.4983 O.2       3 UNK        -0.5208 
     27 CA         24.8691    1.6307   -3.2259 C.3       3 UNK         0.0250 
     28 CB         24.0561    2.8786   -2.8468 C.3       3 UNK        -0.1990 
     29 N          24.4686    0.5051   -2.3736 N.am      3 UNK        -0.4232 
     30 C          25.0219   -0.7152   -2.3999 C.2       2 UNK         0.4993 
     31 O          25.9003   -1.0595   -3.1974 O.2       2 UNK        -0.5286 
     32 CA         24.4524   -1.7384   -1.4148 C.3       2 UNK         0.0209 
     33 CB         23.2795   -2.5028   -2.0519 C.3       2 UNK        -0.1931 
     34 N          25.5067   -2.6844   -1.0692 N.am      2 UNK        -0.4546 
     35 C          25.8218   -3.0841    0.1685 C.2       1 UNK         0.5154 
     36 O          25.2097   -2.7321    1.1786 O.2       1 UNK        -0.5181 
     37 C          27.8175   -1.4113   -6.6285 C.2       5 UNK         0.5014 
     38 O          28.4985   -1.5359   -7.6487 O.2       5 UNK        -0.5248 
     39 N          27.9997   -0.4486   -5.7129 N.am      6 UNK        -0.4434 
     40 CA         29.0499    0.5634   -5.7827 C.3       6 UNK         0.0363 
     41 CB         29.0746    1.3854   -4.4860 C.3       6 UNK        -0.1936 
     42 C          28.9320    1.4687   -7.0176 C.2       6 UNK         0.5081 
     43 O          29.9439    1.7344   -7.6636 O.2       6 UNK        -0.5248 
     44 N          27.7027    1.8848   -7.3521 N.am      7 UNK        -0.4718 
     45 CA         27.3802    2.6650   -8.5481 C.3       7 UNK         0.0273 
     46 CB         25.9191    3.1361   -8.4809 C.3       7 UNK        -0.1935 
     47 C          27.6401    1.9023   -9.8571 C.2       7 UNK         0.5018 
     48 O          28.1478    2.5038  -10.8037 O.2       7 UNK        -0.5186 
     49 N          27.3102    0.6016   -9.8885 N.am      8 UNK        -0.4240 
     50 CA         27.5681   -0.2829  -11.0287 C.3       8 UNK         0.0235 
     51 CB         26.8183   -1.6123  -10.8462 C.3       8 UNK        -0.2000 
     52 C          29.0680   -0.5295  -11.2569 C.2       8 UNK         0.4941 
     53 O          29.5164   -0.4987  -12.4037 O.2       8 UNK        -0.5273 
     54 N          29.8161   -0.7524  -10.1674 N.am      9 UNK        -0.4262 
     55 CA         31.2721   -0.9182  -10.1905 C.3       9 UNK         0.0264 
     56 CB         31.7201   -1.5595   -8.8714 C.3       9 UNK        -0.1955 
     57 C          32.0379    0.3954  -10.4286 C.2       9 UNK         0.5031 
     58 O          33.1566    0.3491  -10.9418 O.2       9 UNK        -0.5390 
     59 N          31.4350    1.5247  -10.0302 N.am      10 UNK        -0.4204 
     60 CA         31.9825    2.8851  -10.0105 C.3       10 UNK         0.0237 
     61 CB         32.3087    3.3835  -11.4349 C.3       10 UNK        -0.1985 
     62 C          33.1560    3.0376   -9.0213 C.2       10 UNK         0.4970 
     63 O          34.0767    3.8156   -9.2802 O.2       10 UNK        -0.4914 
     64 N          33.1043    2.2939   -7.9080 N.am      11 UNK        -0.4285 
     65 CA         34.0825    2.3575   -6.8136 C.3       11 UNK         0.1007 
     66 C          33.8173    3.5375   -5.8362 C.2       11 UNK         0.5703 
     67 N          34.7884    3.8741   -4.9975 N.am      11 UNK        -0.7361 
     68 O          32.7481    4.1460   -5.8197 O.2       11 UNK        -0.4986 
     69 C69        34.2349    0.9894   -6.0937 C.3       12 UNK        -0.0947 
     70 S70        32.7012    0.3413   -5.3511 S.3       12 UNK        -0.2240 
     71 C71        33.2211   -1.3559   -4.9609 C.3       12 UNK         0.0194 
     72 H72        27.6478   -6.4549   -2.8638 H         1 UNK         0.0906 
     73 H73        26.5886   -7.7485   -2.3091 H         1 UNK         0.0906 
     74 H74        25.9281   -6.4164   -3.2615 H         1 UNK         0.0906 
     75 H75        27.9708   -4.7114   -1.4493 H         1 UNK         0.3140 
     76 H76        26.7898   -4.6908    1.1593 H         1 UNK         0.1085 
     77 H77        28.1716   -2.6009    1.4738 H         1 UNK         0.0836 
     78 H78        29.0793   -3.9980    1.0022 H         1 UNK         0.0836 
     79 H79        31.2870   -3.1532   -0.6439 H         1 UNK         0.0731 
     80 H80        30.1932   -4.4482   -1.0633 H         1 UNK         0.0731 
     81 H81        32.3461   -1.8321   -2.4098 H         1 UNK         0.1312 
     82 H82        31.5148   -2.8003   -6.4951 H         1 UNK         0.1406 
     83 H83        29.2021   -4.5849   -3.3690 H         1 UNK         0.1631 
     84 H84        29.9727   -5.4125   -6.3678 H         1 UNK         0.0717 
     85 H85        29.4382   -3.9086   -7.0577 H         1 UNK         0.0717 
     86 H86        26.0304   -3.6234   -4.6985 H         1 UNK         0.0934 
     87 H87        27.5573   -2.8724   -4.4161 H         1 UNK         0.0934 
     88 H88        26.4621   -2.9415   -7.2743 H         1 UNK         0.0739 
     89 H89        25.1354   -1.5324   -5.1356 H         1 UNK         0.3093 
     90 H90        23.5299    0.9008   -7.1515 H         1 UNK         0.0818 
     91 H91        21.4402   -0.1565   -6.3337 H         1 UNK         0.0819 
     92 H92        22.1382   -1.1238   -7.6209 H         1 UNK         0.0819 
     93 H93        22.3065   -1.6451   -5.9503 H         1 UNK         0.0819 
     94 H94        23.1506    0.1502   -4.4304 H         1 UNK         0.3041 
     95 H95        25.9217    1.8341   -3.0184 H         1 UNK         0.0784 
     96 H96        24.3521    3.7357   -3.4538 H         1 UNK         0.0793 
     97 H97        22.9865    2.7267   -2.9975 H         1 UNK         0.0793 
     98 H98        24.2138    3.1544   -1.8040 H         1 UNK         0.0793 
     99 H99        23.7382    0.6928   -1.7012 H         1 UNK         0.3024 
    100 H100       24.1057   -1.2115   -0.5226 H         1 UNK         0.1171 
    101 H101       22.8738   -3.2447   -1.3636 H         1 UNK         0.0786 
    102 H102       23.5824   -3.0242   -2.9610 H         1 UNK         0.0786 
    103 H103       22.4647   -1.8274   -2.3158 H         1 UNK         0.0786 
    104 H104       26.1190   -2.9419   -1.8313 H         1 UNK         0.2977 
    105 H105       27.3825   -0.4181   -4.9108 H         1 UNK         0.3127 
    106 H106       29.9910    0.0213   -5.8659 H         1 UNK         0.0770 
    107 H107       28.1435    1.9321   -4.3351 H         1 UNK         0.0814 
    108 H108       29.8846    2.1160   -4.5082 H         1 UNK         0.0814 
    109 H109       29.2384    0.7476   -3.6169 H         1 UNK         0.0814 
    110 H110       26.9294    1.6787   -6.7218 H         1 UNK         0.2983 
    111 H111       28.0239    3.5474   -8.5491 H         1 UNK         0.0947 
    112 H112       25.6602    3.7361   -9.3543 H         1 UNK         0.0806 
    113 H113       25.7421    3.7530   -7.5996 H         1 UNK         0.0806 
    114 H114       25.2266    2.2945   -8.4439 H         1 UNK         0.0806 
    115 H115       26.8572    0.1864   -9.0813 H         1 UNK         0.3000 
    116 H116       27.1754    0.2045  -11.9237 H         1 UNK         0.0850 
    117 H117       27.0033   -2.2846  -11.6850 H         1 UNK         0.0810 
    118 H118       25.7413   -1.4534  -10.7904 H         1 UNK         0.0810 
    119 H119       27.1258   -2.1303   -9.9371 H         1 UNK         0.0810 
    120 H120       29.3538   -0.8318   -9.2640 H         1 UNK         0.3040 
    121 H121       31.5280   -1.5998  -11.0046 H         1 UNK         0.0766 
    122 H122       32.8025   -1.6930   -8.8428 H         1 UNK         0.0812 
    123 H123       31.4411   -0.9455   -8.0138 H         1 UNK         0.0812 
    124 H124       31.2660   -2.5427   -8.7488 H         1 UNK         0.0812 
    125 H125       30.5602    1.4256   -9.5237 H         1 UNK         0.3205 
    126 H126       31.1831    3.5170   -9.6205 H         1 UNK         0.0754 
    127 H127       32.5639    4.4438  -11.4285 H         1 UNK         0.0769 
    128 H128       31.4545    3.2607  -12.1009 H         1 UNK         0.0769 
    129 H129       33.1540    2.8495  -11.8695 H         1 UNK         0.0769 
    130 H130       32.2685    1.7541   -7.7246 H         1 UNK         0.2981 
    131 H131       35.0534    2.5687   -7.2663 H         1 UNK         0.0541 
    132 H132       35.6704    3.3861   -4.9956 H         1 UNK         0.3459 
    133 H133       34.6353    4.6336   -4.3527 H         1 UNK         0.3459 
    134 H134       34.9988    1.0447   -5.3165 H         1 UNK         0.0612 
    135 H135       34.5991    0.2535   -6.8123 H         1 UNK         0.0612 
    136 H136       33.6833   -1.8034   -5.8422 H         1 UNK         0.0624 
    137 H137       33.9931   -1.3253   -4.1905 H         1 UNK         0.0624 
@<TRIPOS>BOND
     1    1    2 1    
     2    1   72 1    
     3    1   73 1    
     4    1   74 1    
     5    2    3 2    
     6    2    4 am   BACKBONE|DICT|INTERRES
     7    4    5 1    
     8    4   75 1    
     9    5    6 1    
    10    5   35 1    
    11    5   76 1    
    12    6    7 1    
    13    6   77 1    
    14    6   78 1    
    15    7    8 1    
    16    8    9 1    
    17    8   79 1    
    18    8   80 1    
    19    9   10 ar   
    20    9   14 ar   
    21   10   11 ar   
    22   10   81 1    
    23   11   12 ar   
    24   11   71 1    
    25   12   13 ar   
    26   12   82 1    
    27   13   14 ar   
    28   13   15 1    
    29   14   83 1    
    30   15   16 1    
    31   15   84 1    
    32   15   85 1    
    33   16   17 1    
    34   17   18 1    
    35   17   86 1    
    36   17   87 1    
    37   18   19 1    
    38   18   37 1    
    39   18   88 1    
    40   19   20 am   BACKBONE|DICT|INTERRES
    41   19   89 1    
    42   20   21 2    
    43   20   22 1    
    44   22   23 1    
    45   22   24 1    
    46   22   90 1    
    47   23   91 1    
    48   23   92 1    
    49   23   93 1    
    50   24   25 am   BACKBONE|DICT|INTERRES
    51   24   94 1    
    52   25   26 2    
    53   25   27 1    
    54   27   28 1    
    55   27   29 1    
    56   27   95 1    
    57   28   96 1    
    58   28   97 1    
    59   28   98 1    
    60   29   30 am   BACKBONE|DICT|INTERRES
    61   29   99 1    
    62   30   31 2    
    63   30   32 1    
    64   32   33 1    
    65   32   34 1    
    66   32  100 1    
    67   33  101 1    
    68   33  102 1    
    69   33  103 1    
    70   34   35 am   BACKBONE|DICT|INTERRES
    71   34  104 1    
    72   35   36 2    
    73   37   38 2    
    74   37   39 am   BACKBONE|DICT|INTERRES
    75   39   40 1    
    76   39  105 1    
    77   40   41 1    
    78   40   42 1    
    79   40  106 1    
    80   41  107 1    
    81   41  108 1    
    82   41  109 1    
    83   42   43 2    
    84   42   44 am   BACKBONE|DICT|INTERRES
    85   44   45 1    
    86   44  110 1    
    87   45   46 1    
    88   45   47 1    
    89   45  111 1    
    90   46  112 1    
    91   46  113 1    
    92   46  114 1    
    93   47   48 2    
    94   47   49 am   BACKBONE|DICT|INTERRES
    95   49   50 1    
    96   49  115 1    
    97   50   51 1    
    98   50   52 1    
    99   50  116 1    
   100   51  117 1    
   101   51  118 1    
   102   51  119 1    
   103   52   53 2    
   104   52   54 am   BACKBONE|DICT|INTERRES
   105   54   55 1    
   106   54  120 1    
   107   55   56 1    
   108   55   57 1    
   109   55  121 1    
   110   56  122 1    
   111   56  123 1    
   112   56  124 1    
   113   57   58 2    
   114   57   59 am   BACKBONE|DICT|INTERRES
   115   59   60 1    
   116   59  125 1    
   117   60   61 1    
   118   60   62 1    
   119   60  126 1    
   120   61  127 1    
   121   61  128 1    
   122   61  129 1    
   123   62   63 2    
   124   62   64 am   BACKBONE|DICT|INTERRES
   125   64   65 1    
   126   64  130 1    
   127   65   66 1    
   128   65   69 1    
   129   65  131 1    
   130   66   67 am   BACKBONE|DICT|INTERRES
   131   66   68 2    
   132   67  132 1    
   133   67  133 1    
   134   69   70 1    
   135   69  134 1    
   136   69  135 1    
   137   70   71 1    
   138   71  136 1    
   139   71  137 1    
@<TRIPOS>SUBSTRUCTURE
     1 UNK         1 GROUP             0       ****    0 ROOT    
