@<TRIPOS>MOLECULE
3R137
137   139    1
SMALL
USER_CHARGES


@<TRIPOS>ATOM
      1 CA         25.3787   -4.6758   -8.3712 C.3       0 UNK        -0.2020 
      2 C          25.5573   -5.0066   -6.8972 C.2       0 UNK         0.4855 
      3 O          25.4698   -6.1730   -6.5134 O.2       0 UNK        -0.5197 
      4 N          25.8051   -3.9852   -6.0702 N.am      1 UNK        -0.4892 
      5 CA         25.9560   -4.0939   -4.6155 C.3       1 UNK         0.0835 
      6 C6         26.9268   -2.9990   -4.1042 C.3       12 UNK        -0.0855 
      7 S7         27.5763   -3.2917   -2.4213 S.3       12 UNK        -0.2931 
      8 C8         29.2040   -4.0531   -2.7430 C.3       12 UNK         0.0378 
      9 C9         30.1936   -3.0562   -3.3300 C.ar      12 UNK        -0.0802 
     10 C10        30.5694   -3.1429   -4.6744 C.ar      12 UNK        -0.0944 
     11 C11        31.4234   -2.1898   -5.2379 C.ar      12 UNK        -0.0787 
     12 C12        31.8918   -1.1409   -4.4427 C.ar      12 UNK        -0.0862 
     13 C13        31.5547   -1.0607   -3.0895 C.ar      12 UNK        -0.0733 
     14 C14        30.7182   -2.0336   -2.5329 C.ar      12 UNK        -0.0832 
     15 C15        32.0825    0.0917   -2.2436 C.3       12 UNK         0.0240 
     16 S16        30.7532    1.1351   -1.5587 S.3       12 UNK        -0.2522 
     17 C17        29.8535    1.6719   -3.0578 C.3       12 UNK        -0.0967 
     18 CA         28.5943    0.8021   -3.3316 C.3       5 UNK         0.0660 
     19 N          27.6973    0.6788   -2.1773 N.am      5 UNK        -0.4015 
     20 C          26.9575    1.6398   -1.6076 C.2       4 UNK         0.4946 
     21 O          26.9313    2.8153   -1.9781 O.2       4 UNK        -0.5353 
     22 CA         26.0691    1.1804   -0.4314 C.3       4 UNK         0.0277 
     23 CB         25.9851    2.2614    0.6616 C.3       4 UNK        -0.1981 
     24 N          24.7044    0.7827   -0.8122 N.am      4 UNK        -0.4209 
     25 C          24.3520   -0.0283   -1.8197 C.2       3 UNK         0.4942 
     26 O          25.1430   -0.4951   -2.6435 O.2       3 UNK        -0.5208 
     27 CA         22.8674   -0.3984   -1.9356 C.3       3 UNK         0.0250 
     28 CB         22.0009    0.8012   -2.3587 C.3       3 UNK        -0.1990 
     29 N          22.7870   -1.4498   -2.9411 N.am      3 UNK        -0.4232 
     30 C          21.8973   -2.4384   -3.0296 C.2       2 UNK         0.4993 
     31 O          20.9126   -2.5473   -2.2979 O.2       2 UNK        -0.5286 
     32 CA         22.1543   -3.4872   -4.1277 C.3       2 UNK         0.0209 
     33 CB         21.2378   -3.2319   -5.3357 C.3       2 UNK        -0.1931 
     34 N          23.5486   -3.5290   -4.5927 N.am      2 UNK        -0.4546 
     35 C          24.5746   -4.0699   -3.9141 C.2       1 UNK         0.5154 
     36 O          24.4450   -4.5790   -2.8000 O.2       1 UNK        -0.5181 
     37 C          27.8624    1.1748   -4.6412 C.2       5 UNK         0.5014 
     38 O          28.4745    1.7596   -5.5371 O.2       5 UNK        -0.5248 
     39 N          26.5776    0.8038   -4.7543 N.am      6 UNK        -0.4434 
     40 CA         25.7775    0.9230   -5.9722 C.3       6 UNK         0.0363 
     41 CB         24.2840    0.9372   -5.6054 C.3       6 UNK        -0.1936 
     42 C          26.1253   -0.2341   -6.9196 C.2       6 UNK         0.5081 
     43 O          25.5283   -1.3094   -6.8280 O.2       6 UNK        -0.5248 
     44 N          27.1262   -0.0095   -7.7718 N.am      7 UNK        -0.4718 
     45 CA         27.6950   -0.9696   -8.7114 C.3       7 UNK         0.0273 
     46 CB         28.5093   -2.0254   -7.9420 C.3       7 UNK        -0.1935 
     47 C          28.5646   -0.2140   -9.7267 C.2       7 UNK         0.5018 
     48 O          28.7963    0.9880   -9.5561 O.2       7 UNK        -0.5186 
     49 N          29.0230   -0.9344  -10.7616 N.am      8 UNK        -0.4240 
     50 CA         29.8213   -0.4446  -11.8926 C.3       8 UNK         0.0235 
     51 CB         30.2719   -1.6410  -12.7479 C.3       8 UNK        -0.2000 
     52 C          31.0314    0.4027  -11.4623 C.2       8 UNK         0.4941 
     53 O          31.9604   -0.1254  -10.8449 O.2       8 UNK        -0.5273 
     54 N          30.9534    1.7124  -11.7465 N.am      9 UNK        -0.4262 
     55 CA         31.9211    2.7658  -11.4047 C.3       9 UNK         0.0264 
     56 CB         33.1983    2.6040  -12.2568 C.3       9 UNK        -0.1955 
     57 C          32.2440    2.8709   -9.8979 C.2       9 UNK         0.5031 
     58 O          33.3152    3.3704   -9.5469 O.2       9 UNK        -0.5390 
     59 N          31.3522    2.3510   -9.0366 N.am      10 UNK        -0.4204 
     60 CA         31.5352    2.1401   -7.5948 C.3       10 UNK         0.0237 
     61 CB         31.4411    3.4811   -6.8377 C.3       10 UNK        -0.1985 
     62 C          32.8158    1.3456   -7.2516 C.2       10 UNK         0.4970 
     63 O          33.4232    1.5976   -6.2099 O.2       10 UNK        -0.4914 
     64 N          33.2118    0.4197   -8.1420 N.am      11 UNK        -0.4285 
     65 CA         34.4601   -0.3612   -8.0898 C.3       11 UNK         0.1007 
     66 C          35.7550    0.4979   -8.2582 C.2       11 UNK         0.5703 
     67 N          35.6815    1.7458   -8.7100 N.am      11 UNK        -0.7361 
     68 O          36.8591    0.0152   -8.0167 O.2       11 UNK        -0.4986 
     69 C69        34.5210   -1.3451   -6.8771 C.3       12 UNK        -0.0947 
     70 S70        33.4669   -2.8266   -7.0657 S.3       12 UNK        -0.2240 
     71 C71        31.7713   -2.2582   -6.7198 C.3       12 UNK         0.0194 
     72 H72        26.1621   -5.1520   -8.9601 H         1 UNK         0.0906 
     73 H73        24.4150   -5.0417   -8.7243 H         1 UNK         0.0906 
     74 H74        25.4204   -3.6021   -8.5548 H         1 UNK         0.0906 
     75 H75        25.8089   -3.0318   -6.4373 H         1 UNK         0.3140 
     76 H76        26.4049   -5.0642   -4.3909 H         1 UNK         0.1085 
     77 H77        27.7744   -2.9141   -4.7842 H         1 UNK         0.0836 
     78 H78        26.4473   -2.0225   -4.1357 H         1 UNK         0.0836 
     79 H79        29.0763   -4.9135   -3.4019 H         1 UNK         0.0731 
     80 H80        29.6024   -4.4429   -1.8053 H         1 UNK         0.0731 
     81 H81        30.1731   -3.9386   -5.2905 H         1 UNK         0.1312 
     82 H82        32.5138   -0.3746   -4.8752 H         1 UNK         0.1406 
     83 H83        30.4363   -1.9659   -1.4907 H         1 UNK         0.1631 
     84 H84        32.7594    0.7227   -2.8222 H         1 UNK         0.0717 
     85 H85        32.6714   -0.3139   -1.4199 H         1 UNK         0.0717 
     86 H86        29.5701    2.7182   -2.9324 H         1 UNK         0.0934 
     87 H87        30.5372    1.6443   -3.9086 H         1 UNK         0.0934 
     88 H88        28.9389   -0.2134   -3.5196 H         1 UNK         0.0739 
     89 H89        27.5801   -0.2643   -1.8332 H         1 UNK         0.3093 
     90 H90        26.5416    0.3036    0.0164 H         1 UNK         0.0818 
     91 H91        26.9810    2.5855    0.9674 H         1 UNK         0.0819 
     92 H92        25.4481    3.1453    0.3147 H         1 UNK         0.0819 
     93 H93        25.4803    1.8895    1.5534 H         1 UNK         0.0819 
     94 H94        23.9694    1.1280   -0.2122 H         1 UNK         0.3041 
     95 H95        22.5295   -0.7870   -0.9727 H         1 UNK         0.0784 
     96 H96        22.0409    1.6003   -1.6178 H         1 UNK         0.0793 
     97 H97        22.3268    1.2202   -3.3105 H         1 UNK         0.0793 
     98 H98        20.9547    0.5132   -2.4643 H         1 UNK         0.0793 
     99 H99        23.6147   -1.4970   -3.5232 H         1 UNK         0.3024 
    100 H100       21.9039   -4.4629   -3.7048 H         1 UNK         0.1171 
    101 H101       21.3492   -4.0108   -6.0904 H         1 UNK         0.0786 
    102 H102       20.1889   -3.2223   -5.0353 H         1 UNK         0.0786 
    103 H103       21.4504   -2.2719   -5.8080 H         1 UNK         0.0786 
    104 H104       23.7385   -3.1476   -5.5090 H         1 UNK         0.2977 
    105 H105       26.1403    0.3170   -3.9737 H         1 UNK         0.3127 
    106 H106       26.0098    1.8684   -6.4676 H         1 UNK         0.0770 
    107 H107       23.9766    0.0169   -5.1100 H         1 UNK         0.0814 
    108 H108       23.6666    1.0460   -6.4978 H         1 UNK         0.0814 
    109 H109       24.0504    1.7712   -4.9441 H         1 UNK         0.0814 
    110 H110       27.5808    0.8974   -7.7856 H         1 UNK         0.2983 
    111 H111       26.8847   -1.4541   -9.2604 H         1 UNK         0.0947 
    112 H112       29.1047   -2.6516   -8.6068 H         1 UNK         0.0806 
    113 H113       27.8635   -2.6930   -7.3756 H         1 UNK         0.0806 
    114 H114       29.1823   -1.5463   -7.2329 H         1 UNK         0.0806 
    115 H115       28.7888   -1.9159  -10.7908 H         1 UNK         0.3000 
    116 H116       29.1619    0.1734  -12.5054 H         1 UNK         0.0850 
    117 H117       30.8881   -2.3362  -12.1758 H         1 UNK         0.0810 
    118 H118       30.8642   -1.3093  -13.6019 H         1 UNK         0.0810 
    119 H119       29.4192   -2.1936  -13.1428 H         1 UNK         0.0810 
    120 H120       30.1178    2.0394  -12.2129 H         1 UNK         0.3040 
    121 H121       31.4546    3.7132  -11.6783 H         1 UNK         0.0766 
    122 H122       33.7513    1.7037  -11.9860 H         1 UNK         0.0812 
    123 H123       32.9627    2.5462  -13.3193 H         1 UNK         0.0812 
    124 H124       33.8718    3.4515  -12.1233 H         1 UNK         0.0812 
    125 H125       30.4956    1.9550   -9.4184 H         1 UNK         0.3205 
    126 H126       30.6998    1.5177   -7.2699 H         1 UNK         0.0754 
    127 H127       31.4513    3.3234   -5.7585 H         1 UNK         0.0769 
    128 H128       30.5143    4.0033   -7.0752 H         1 UNK         0.0769 
    129 H129       32.2736    4.1419   -7.0813 H         1 UNK         0.0769 
    130 H130       32.6739    0.3001   -8.9954 H         1 UNK         0.2981 
    131 H131       34.4440   -0.9697   -8.9945 H         1 UNK         0.0541 
    132 H132       36.5318    2.2734   -8.8238 H         1 UNK         0.3459 
    133 H133       34.7901    2.1799   -8.9265 H         1 UNK         0.3459 
    134 H134       34.3219   -0.8439   -5.9334 H         1 UNK         0.0612 
    135 H135       35.5299   -1.7448   -6.7663 H         1 UNK         0.0612 
    136 H136       31.5727   -1.3003   -7.1926 H         1 UNK         0.0624 
    137 H137       31.1081   -2.9681   -7.2142 H         1 UNK         0.0624 
@<TRIPOS>BOND
     1    1    2 1    
     2    1   72 1    
     3    1   73 1    
     4    1   74 1    
     5    2    3 2    
     6    2    4 am   BACKBONE|DICT|INTERRES
     7    4    5 1    
     8    4   75 1    
     9    5    6 1    
    10    5   35 1    
    11    5   76 1    
    12    6    7 1    
    13    6   77 1    
    14    6   78 1    
    15    7    8 1    
    16    8    9 1    
    17    8   79 1    
    18    8   80 1    
    19    9   10 ar   
    20    9   14 ar   
    21   10   11 ar   
    22   10   81 1    
    23   11   12 ar   
    24   11   71 1    
    25   12   13 ar   
    26   12   82 1    
    27   13   14 ar   
    28   13   15 1    
    29   14   83 1    
    30   15   16 1    
    31   15   84 1    
    32   15   85 1    
    33   16   17 1    
    34   17   18 1    
    35   17   86 1    
    36   17   87 1    
    37   18   19 1    
    38   18   37 1    
    39   18   88 1    
    40   19   20 am   BACKBONE|DICT|INTERRES
    41   19   89 1    
    42   20   21 2    
    43   20   22 1    
    44   22   23 1    
    45   22   24 1    
    46   22   90 1    
    47   23   91 1    
    48   23   92 1    
    49   23   93 1    
    50   24   25 am   BACKBONE|DICT|INTERRES
    51   24   94 1    
    52   25   26 2    
    53   25   27 1    
    54   27   28 1    
    55   27   29 1    
    56   27   95 1    
    57   28   96 1    
    58   28   97 1    
    59   28   98 1    
    60   29   30 am   BACKBONE|DICT|INTERRES
    61   29   99 1    
    62   30   31 2    
    63   30   32 1    
    64   32   33 1    
    65   32   34 1    
    66   32  100 1    
    67   33  101 1    
    68   33  102 1    
    69   33  103 1    
    70   34   35 am   BACKBONE|DICT|INTERRES
    71   34  104 1    
    72   35   36 2    
    73   37   38 2    
    74   37   39 am   BACKBONE|DICT|INTERRES
    75   39   40 1    
    76   39  105 1    
    77   40   41 1    
    78   40   42 1    
    79   40  106 1    
    80   41  107 1    
    81   41  108 1    
    82   41  109 1    
    83   42   43 2    
    84   42   44 am   BACKBONE|DICT|INTERRES
    85   44   45 1    
    86   44  110 1    
    87   45   46 1    
    88   45   47 1    
    89   45  111 1    
    90   46  112 1    
    91   46  113 1    
    92   46  114 1    
    93   47   48 2    
    94   47   49 am   BACKBONE|DICT|INTERRES
    95   49   50 1    
    96   49  115 1    
    97   50   51 1    
    98   50   52 1    
    99   50  116 1    
   100   51  117 1    
   101   51  118 1    
   102   51  119 1    
   103   52   53 2    
   104   52   54 am   BACKBONE|DICT|INTERRES
   105   54   55 1    
   106   54  120 1    
   107   55   56 1    
   108   55   57 1    
   109   55  121 1    
   110   56  122 1    
   111   56  123 1    
   112   56  124 1    
   113   57   58 2    
   114   57   59 am   BACKBONE|DICT|INTERRES
   115   59   60 1    
   116   59  125 1    
   117   60   61 1    
   118   60   62 1    
   119   60  126 1    
   120   61  127 1    
   121   61  128 1    
   122   61  129 1    
   123   62   63 2    
   124   62   64 am   BACKBONE|DICT|INTERRES
   125   64   65 1    
   126   64  130 1    
   127   65   66 1    
   128   65   69 1    
   129   65  131 1    
   130   66   67 am   BACKBONE|DICT|INTERRES
   131   66   68 2    
   132   67  132 1    
   133   67  133 1    
   134   69   70 1    
   135   69  134 1    
   136   69  135 1    
   137   70   71 1    
   138   71  136 1    
   139   71  137 1    
@<TRIPOS>SUBSTRUCTURE
     1 UNK         1 GROUP             0       ****    0 ROOT    
