@<TRIPOS>MOLECULE
3R137
137   139    1
SMALL
USER_CHARGES


@<TRIPOS>ATOM
      1 CA         26.1051    0.4083    3.3365 C.3       0 UNK        -0.2020 
      2 C          26.3553   -0.4431    2.1006 C.2       0 UNK         0.4855 
      3 O          26.4817   -1.6622    2.2172 O.2       0 UNK        -0.5197 
      4 N          26.4303    0.1931    0.9232 N.am      1 UNK        -0.4892 
      5 CA         26.6183   -0.4276   -0.3925 C.3       1 UNK         0.0835 
      6 C6         28.0013   -1.1222   -0.5430 C.3       12 UNK        -0.0855 
      7 S7         28.4188   -1.4109   -2.2919 S.3       12 UNK        -0.2931 
      8 C8         29.7526   -2.6401   -2.1412 C.3       12 UNK         0.0378 
      9 C9         30.1844   -3.1116   -3.5200 C.ar      12 UNK        -0.0802 
     10 C10        31.3934   -2.6900   -4.0808 C.ar      12 UNK        -0.0944 
     11 C11        31.7448   -3.0687   -5.3820 C.ar      12 UNK        -0.0787 
     12 C12        30.8722   -3.8795   -6.1186 C.ar      12 UNK        -0.0862 
     13 C13        29.6705   -4.3255   -5.5575 C.ar      12 UNK        -0.0733 
     14 C14        29.3460   -3.9543   -4.2506 C.ar      12 UNK        -0.0832 
     15 C15        28.7258   -5.2210   -6.3492 C.3       12 UNK         0.0240 
     16 S16        27.6171   -4.2828   -7.4534 S.3       12 UNK        -0.2522 
     17 C17        26.5953   -3.3152   -6.2799 C.3       12 UNK        -0.0967 
     18 CA         26.5372   -1.7838   -6.5287 C.3       5 UNK         0.0660 
     19 N          25.7344   -1.1121   -5.4963 N.am      5 UNK        -0.4015 
     20 C          25.3845    0.1864   -5.4975 C.2       4 UNK         0.4946 
     21 O          25.7835    0.9919   -6.3412 O.2       4 UNK        -0.5353 
     22 CA         24.4519    0.6775   -4.3665 C.3       4 UNK         0.0277 
     23 CB         23.6838    1.9612   -4.7462 C.3       4 UNK        -0.1981 
     24 N          23.5311   -0.3533   -3.8710 N.am      4 UNK        -0.4209 
     25 C          22.6350   -1.0568   -4.5848 C.2       3 UNK         0.4942 
     26 O          22.3585   -0.8169   -5.7612 O.2       3 UNK        -0.5208 
     27 CA         21.9599   -2.2553   -3.8777 C.3       3 UNK         0.0250 
     28 CB         21.6333   -3.3992   -4.8616 C.3       3 UNK        -0.1990 
     29 N          22.7125   -2.7796   -2.7263 N.am      3 UNK        -0.4232 
     30 C          23.9823   -3.2143   -2.7203 C.2       2 UNK         0.4993 
     31 O          24.7110   -3.2432   -3.7142 O.2       2 UNK        -0.5286 
     32 CA         24.5719   -3.5845   -1.3512 C.3       2 UNK         0.0209 
     33 CB         25.2051   -4.9858   -1.3862 C.3       2 UNK        -0.1931 
     34 N          25.5863   -2.6117   -0.9382 N.am      2 UNK        -0.4546 
     35 C          25.3938   -1.2954   -0.7649 C.2       1 UNK         0.5154 
     36 O          24.2993   -0.7437   -0.9069 O.2       1 UNK        -0.5181 
     37 C          27.9165   -1.1260   -6.7667 C.2       5 UNK         0.5014 
     38 O          28.3723   -1.1105   -7.9102 O.2       5 UNK        -0.5248 
     39 N          28.5178   -0.5125   -5.7352 N.am      6 UNK        -0.4434 
     40 CA         29.7581    0.2616   -5.8526 C.3       6 UNK         0.0363 
     41 CB         30.1919    0.7923   -4.4777 C.3       6 UNK        -0.1936 
     42 C          29.6989    1.4211   -6.8623 C.2       6 UNK         0.5081 
     43 O          30.7090    1.7016   -7.5082 O.2       6 UNK        -0.5248 
     44 N          28.5262    2.0559   -7.0065 N.am      7 UNK        -0.4718 
     45 CA         28.2959    3.1292   -7.9762 C.3       7 UNK         0.0273 
     46 CB         27.0550    3.9379   -7.5655 C.3       7 UNK        -0.1935 
     47 C          28.1484    2.6002   -9.4122 C.2       7 UNK         0.5018 
     48 O          28.5326    3.2985  -10.3503 O.2       7 UNK        -0.5186 
     49 N          27.6125    1.3802   -9.5595 N.am      8 UNK        -0.4240 
     50 CA         27.4898    0.6794  -10.8393 C.3       8 UNK         0.0235 
     51 CB         26.4161   -0.4165  -10.7323 C.3       8 UNK        -0.2000 
     52 C          28.8361    0.0918  -11.2904 C.2       8 UNK         0.4941 
     53 O          29.1901    0.2173  -12.4631 O.2       8 UNK        -0.5273 
     54 N          29.5676   -0.5192  -10.3478 N.am      9 UNK        -0.4262 
     55 CA         30.9089   -1.0714  -10.5470 C.3       9 UNK         0.0264 
     56 CB         31.2657   -1.9643   -9.3469 C.3       9 UNK        -0.1955 
     57 C          31.9875    0.0074  -10.7475 C.2       9 UNK         0.5031 
     58 O          32.9912   -0.2692  -11.4057 O.2       9 UNK        -0.5390 
     59 N          31.7680    1.1974  -10.1664 N.am      10 UNK        -0.4204 
     60 CA         32.6645    2.3592  -10.1311 C.3       10 UNK         0.0237 
     61 CB         32.8904    2.9352  -11.5455 C.3       10 UNK        -0.1985 
     62 C          33.9752    2.0749   -9.3702 C.2       10 UNK         0.4970 
     63 O          35.0245    2.6142   -9.7264 O.2       10 UNK        -0.4914 
     64 N          33.8874    1.2312   -8.3343 N.am      11 UNK        -0.4285 
     65 CA         35.0067    0.8330   -7.4679 C.3       11 UNK         0.1007 
     66 C          35.3599    1.8620   -6.3540 C.2       11 UNK         0.5703 
     67 N          34.5620    2.8999   -6.1286 N.am      11 UNK        -0.7361 
     68 O          36.3884    1.7253   -5.6954 O.2       11 UNK        -0.4986 
     69 C69        34.8103   -0.6033   -6.9119 C.3       12 UNK        -0.0947 
     70 S70        33.2636   -0.8098   -5.9696 S.3       12 UNK        -0.2240 
     71 C71        33.0721   -2.6201   -5.9856 C.3       12 UNK         0.0194 
     72 H72        25.1805    0.0994    3.8235 H         1 UNK         0.0906 
     73 H73        26.9216    0.2861    4.0475 H         1 UNK         0.0906 
     74 H74        26.0229    1.4676    3.0942 H         1 UNK         0.0906 
     75 H75        26.2849    1.1936    0.9026 H         1 UNK         0.3140 
     76 H76        26.6014    0.4049   -1.0983 H         1 UNK         0.1085 
     77 H77        28.7807   -0.4813   -0.1275 H         1 UNK         0.0836 
     78 H78        28.0527   -2.0536    0.0234 H         1 UNK         0.0836 
     79 H79        30.5917   -2.2016   -1.5989 H         1 UNK         0.0731 
     80 H80        29.4074   -3.4924   -1.5539 H         1 UNK         0.0731 
     81 H81        32.0546   -2.0487   -3.5143 H         1 UNK         0.1312 
     82 H82        31.1286   -4.1727   -7.1272 H         1 UNK         0.1406 
     83 H83        28.4226   -4.2958   -3.8031 H         1 UNK         0.1631 
     84 H84        29.3081   -5.9195   -6.9518 H         1 UNK         0.0717 
     85 H85        28.1246   -5.8335   -5.6753 H         1 UNK         0.0717 
     86 H86        25.5834   -3.7211   -6.3279 H         1 UNK         0.0934 
     87 H87        26.9217   -3.5065   -5.2608 H         1 UNK         0.0934 
     88 H88        25.9878   -1.6420   -7.4617 H         1 UNK         0.0739 
     89 H89        25.3531   -1.7215   -4.7768 H         1 UNK         0.3093 
     90 H90        25.1065    0.9229   -3.5291 H         1 UNK         0.0818 
     91 H91        23.0483    2.3006   -3.9284 H         1 UNK         0.0819 
     92 H92        24.3712    2.7754   -4.9797 H         1 UNK         0.0819 
     93 H93        23.0524    1.8098   -5.6222 H         1 UNK         0.0819 
     94 H94        23.6618   -0.6168   -2.8991 H         1 UNK         0.3041 
     95 H95        21.0164   -1.8768   -3.4815 H         1 UNK         0.0784 
     96 H96        20.9586   -3.0618   -5.6494 H         1 UNK         0.0793 
     97 H97        22.5323   -3.7831   -5.3455 H         1 UNK         0.0793 
     98 H98        21.1441   -4.2312   -4.3552 H         1 UNK         0.0793 
     99 H99        22.2224   -2.7409   -1.8426 H         1 UNK         0.3024 
    100 H100       23.7768   -3.5835   -0.6026 H         1 UNK         0.1171 
    101 H101       24.4741   -5.7361   -1.6904 H         1 UNK         0.0786 
    102 H102       26.0364   -5.0371   -2.0910 H         1 UNK         0.0786 
    103 H103       25.5788   -5.2777   -0.4045 H         1 UNK         0.0786 
    104 H104       26.5267   -2.9633   -0.8373 H         1 UNK         0.2977 
    105 H105       28.1061   -0.5838   -4.8155 H         1 UNK         0.3127 
    106 H106       30.5157   -0.4324   -6.2129 H         1 UNK         0.0770 
    107 H107       29.4096    1.3881   -4.0065 H         1 UNK         0.0814 
    108 H108       31.0784    1.4226   -4.5642 H         1 UNK         0.0814 
    109 H109       30.4537   -0.0201   -3.8032 H         1 UNK         0.0814 
    110 H110       27.7155    1.7242   -6.4931 H         1 UNK         0.2983 
    111 H111       29.1579    3.8004   -7.9592 H         1 UNK         0.0947 
    112 H112       26.8986    4.7796   -8.2415 H         1 UNK         0.0806 
    113 H113       27.1607    4.3451   -6.5600 H         1 UNK         0.0806 
    114 H114       26.1491    3.3310   -7.5882 H         1 UNK         0.0806 
    115 H115       27.3633    0.8631   -8.7267 H         1 UNK         0.3000 
    116 H116       27.1657    1.3962  -11.5973 H         1 UNK         0.0850 
    117 H117       26.2791   -0.9192  -11.6906 H         1 UNK         0.0810 
    118 H118       25.4510    0.0008  -10.4446 H         1 UNK         0.0810 
    119 H119       26.6819   -1.1806  -10.0012 H         1 UNK         0.0810 
    120 H120       29.1576   -0.6448   -9.4210 H         1 UNK         0.3040 
    121 H121       30.8896   -1.6924  -11.4450 H         1 UNK         0.0766 
    122 H122       30.5481   -2.7770   -9.2316 H         1 UNK         0.0812 
    123 H123       31.2776   -1.3993   -8.4140 H         1 UNK         0.0812 
    124 H124       32.2518   -2.4138   -9.4705 H         1 UNK         0.0812 
    125 H125       30.9490    1.2820   -9.5748 H         1 UNK         0.3205 
    126 H126       32.1417    3.1201   -9.5497 H         1 UNK         0.0754 
    127 H127       33.4304    3.8817  -11.5005 H         1 UNK         0.0769 
    128 H128       31.9429    3.1274  -12.0493 H         1 UNK         0.0769 
    129 H129       33.4729    2.2590  -12.1718 H         1 UNK         0.0769 
    130 H130       32.9780    0.8776   -8.0701 H         1 UNK         0.2981 
    131 H131       35.8980    0.7911   -8.0968 H         1 UNK         0.0541 
    132 H132       34.8052    3.5633   -5.4103 H         1 UNK         0.3459 
    133 H133       33.7114    3.0123   -6.6560 H         1 UNK         0.3459 
    134 H134       35.6504   -0.8980   -6.2804 H         1 UNK         0.0612 
    135 H135       34.8020   -1.3082   -7.7446 H         1 UNK         0.0612 
    136 H136       33.8911   -3.0709   -5.4238 H         1 UNK         0.0624 
    137 H137       33.1635   -2.9757   -7.0129 H         1 UNK         0.0624 
@<TRIPOS>BOND
     1    1    2 1    
     2    1   72 1    
     3    1   73 1    
     4    1   74 1    
     5    2    3 2    
     6    2    4 am   BACKBONE|DICT|INTERRES
     7    4    5 1    
     8    4   75 1    
     9    5    6 1    
    10    5   35 1    
    11    5   76 1    
    12    6    7 1    
    13    6   77 1    
    14    6   78 1    
    15    7    8 1    
    16    8    9 1    
    17    8   79 1    
    18    8   80 1    
    19    9   10 ar   
    20    9   14 ar   
    21   10   11 ar   
    22   10   81 1    
    23   11   12 ar   
    24   11   71 1    
    25   12   13 ar   
    26   12   82 1    
    27   13   14 ar   
    28   13   15 1    
    29   14   83 1    
    30   15   16 1    
    31   15   84 1    
    32   15   85 1    
    33   16   17 1    
    34   17   18 1    
    35   17   86 1    
    36   17   87 1    
    37   18   19 1    
    38   18   37 1    
    39   18   88 1    
    40   19   20 am   BACKBONE|DICT|INTERRES
    41   19   89 1    
    42   20   21 2    
    43   20   22 1    
    44   22   23 1    
    45   22   24 1    
    46   22   90 1    
    47   23   91 1    
    48   23   92 1    
    49   23   93 1    
    50   24   25 am   BACKBONE|DICT|INTERRES
    51   24   94 1    
    52   25   26 2    
    53   25   27 1    
    54   27   28 1    
    55   27   29 1    
    56   27   95 1    
    57   28   96 1    
    58   28   97 1    
    59   28   98 1    
    60   29   30 am   BACKBONE|DICT|INTERRES
    61   29   99 1    
    62   30   31 2    
    63   30   32 1    
    64   32   33 1    
    65   32   34 1    
    66   32  100 1    
    67   33  101 1    
    68   33  102 1    
    69   33  103 1    
    70   34   35 am   BACKBONE|DICT|INTERRES
    71   34  104 1    
    72   35   36 2    
    73   37   38 2    
    74   37   39 am   BACKBONE|DICT|INTERRES
    75   39   40 1    
    76   39  105 1    
    77   40   41 1    
    78   40   42 1    
    79   40  106 1    
    80   41  107 1    
    81   41  108 1    
    82   41  109 1    
    83   42   43 2    
    84   42   44 am   BACKBONE|DICT|INTERRES
    85   44   45 1    
    86   44  110 1    
    87   45   46 1    
    88   45   47 1    
    89   45  111 1    
    90   46  112 1    
    91   46  113 1    
    92   46  114 1    
    93   47   48 2    
    94   47   49 am   BACKBONE|DICT|INTERRES
    95   49   50 1    
    96   49  115 1    
    97   50   51 1    
    98   50   52 1    
    99   50  116 1    
   100   51  117 1    
   101   51  118 1    
   102   51  119 1    
   103   52   53 2    
   104   52   54 am   BACKBONE|DICT|INTERRES
   105   54   55 1    
   106   54  120 1    
   107   55   56 1    
   108   55   57 1    
   109   55  121 1    
   110   56  122 1    
   111   56  123 1    
   112   56  124 1    
   113   57   58 2    
   114   57   59 am   BACKBONE|DICT|INTERRES
   115   59   60 1    
   116   59  125 1    
   117   60   61 1    
   118   60   62 1    
   119   60  126 1    
   120   61  127 1    
   121   61  128 1    
   122   61  129 1    
   123   62   63 2    
   124   62   64 am   BACKBONE|DICT|INTERRES
   125   64   65 1    
   126   64  130 1    
   127   65   66 1    
   128   65   69 1    
   129   65  131 1    
   130   66   67 am   BACKBONE|DICT|INTERRES
   131   66   68 2    
   132   67  132 1    
   133   67  133 1    
   134   69   70 1    
   135   69  134 1    
   136   69  135 1    
   137   70   71 1    
   138   71  136 1    
   139   71  137 1    
@<TRIPOS>SUBSTRUCTURE
     1 UNK         1 GROUP             0       ****    0 ROOT    
