@<TRIPOS>MOLECULE
3R137
137   139    1
SMALL
USER_CHARGES


@<TRIPOS>ATOM
      1 CA         27.0646   -0.9458    4.6091 C.3       0 UNK        -0.2020 
      2 C          27.7488   -0.9735    3.2505 C.2       0 UNK         0.4855 
      3 O          28.7424   -0.2744    3.0503 O.2       0 UNK        -0.5197 
      4 N          27.2257   -1.7724    2.3161 N.am      1 UNK        -0.4892 
      5 CA         27.7102   -1.9144    0.9449 C.3       1 UNK         0.0835 
      6 C6         28.9410   -2.8558    0.8617 C.3       12 UNK        -0.0855 
      7 S7         29.8790   -2.6288   -0.6848 S.3       12 UNK        -0.2931 
      8 C8         29.8663   -4.3187   -1.3706 C.3       12 UNK         0.0378 
      9 C9         30.3494   -4.3408   -2.8153 C.ar      12 UNK        -0.0802 
     10 C10        31.5958   -3.8042   -3.1528 C.ar      12 UNK        -0.0944 
     11 C11        32.0179   -3.7641   -4.4840 C.ar      12 UNK        -0.0787 
     12 C12        31.1929   -4.2882   -5.4838 C.ar      12 UNK        -0.0862 
     13 C13        29.9545   -4.8525   -5.1583 C.ar      12 UNK        -0.0733 
     14 C14        29.5450   -4.8858   -3.8211 C.ar      12 UNK        -0.0832 
     15 C15        29.0537   -5.4118   -6.2550 C.3       12 UNK         0.0240 
     16 S16        27.4337   -4.5748   -6.3308 S.3       12 UNK        -0.2522 
     17 C17        27.9339   -2.8265   -6.4616 C.3       12 UNK        -0.0967 
     18 CA         26.9979   -1.9994   -7.3734 C.3       5 UNK         0.0660 
     19 N          25.6095   -1.9720   -6.9123 N.am      5 UNK        -0.4015 
     20 C          24.5663   -1.6483   -7.6906 C.2       4 UNK         0.4946 
     21 O          24.6512   -1.4357   -8.9004 O.2       4 UNK        -0.5353 
     22 CA         23.1947   -1.5151   -7.0057 C.3       4 UNK         0.0277 
     23 CB         22.4614   -2.8662   -7.0026 C.3       4 UNK        -0.1981 
     24 N          23.2750   -1.0003   -5.6362 N.am      4 UNK        -0.4209 
     25 C          23.7275    0.2174   -5.3015 C.2       3 UNK         0.4942 
     26 O          24.0961    1.0607   -6.1165 O.2       3 UNK        -0.5208 
     27 CA         23.8371    0.5272   -3.7994 C.3       3 UNK         0.0250 
     28 CB         22.5172    1.1107   -3.2710 C.3       3 UNK        -0.1990 
     29 N          24.2225   -0.6350   -2.9913 N.am      3 UNK        -0.4232 
     30 C          25.3687   -1.3147   -3.1324 C.2       2 UNK         0.4993 
     31 O          26.2387   -1.0332   -3.9620 O.2       2 UNK        -0.5286 
     32 CA         25.5712   -2.5119   -2.2007 C.3       2 UNK         0.0209 
     33 CB         26.0051   -3.7627   -2.9820 C.3       2 UNK        -0.1931 
     34 N          26.6026   -2.1637   -1.2296 N.am      2 UNK        -0.4546 
     35 C          26.5279   -2.3976    0.0848 C.2       1 UNK         0.5154 
     36 O          25.5762   -2.9697    0.6270 O.2       1 UNK        -0.5181 
     37 C          27.5229   -0.5631   -7.5164 C.2       5 UNK         0.5014 
     38 O          28.0078   -0.2074   -8.5894 O.2       5 UNK        -0.5248 
     39 N          27.3847    0.2384   -6.4477 N.am      6 UNK        -0.4434 
     40 CA         27.8723    1.6199   -6.3633 C.3       6 UNK         0.0363 
     41 CB         27.5787    2.1780   -4.9623 C.3       6 UNK        -0.1936 
     42 C          27.3077    2.5564   -7.4469 C.2       6 UNK         0.5081 
     43 O          28.0350    3.4182   -7.9410 O.2       6 UNK        -0.5248 
     44 N          26.0339    2.3612   -7.8137 N.am      7 UNK        -0.4718 
     45 CA         25.3680    3.0724   -8.9064 C.3       7 UNK         0.0273 
     46 CB         23.8504    2.8513   -8.8018 C.3       7 UNK        -0.1935 
     47 C          25.8692    2.6638  -10.3036 C.2       7 UNK         0.5018 
     48 O          25.7406    3.4615  -11.2336 O.2       7 UNK        -0.5186 
     49 N          26.4084    1.4439  -10.4409 N.am      8 UNK        -0.4240 
     50 CA         26.9444    0.9218  -11.6969 C.3       8 UNK         0.0235 
     51 CB         26.8214   -0.6112  -11.7318 C.3       8 UNK        -0.2000 
     52 C          28.3956    1.3697  -11.9183 C.2       8 UNK         0.4941 
     53 O          28.7082    1.8499  -13.0092 O.2       8 UNK        -0.5273 
     54 N          29.2529    1.2200  -10.8988 N.am      9 UNK        -0.4262 
     55 CA         30.6682    1.5887  -10.9502 C.3       9 UNK         0.0264 
     56 CB         31.4580    0.5592  -11.7848 C.3       9 UNK        -0.1955 
     57 C          31.2514    1.6776   -9.5361 C.2       9 UNK         0.5031 
     58 O          30.7663    1.0061   -8.6245 O.2       9 UNK        -0.5390 
     59 N          32.3224    2.4666   -9.3902 N.am      10 UNK        -0.4204 
     60 CA         33.1463    2.5111   -8.1812 C.3       10 UNK         0.0237 
     61 CB         33.9894    3.7971   -8.1917 C.3       10 UNK        -0.1985 
     62 C          34.0530    1.2710   -8.0974 C.2       10 UNK         0.4970 
     63 O          34.4741    0.7502   -9.1337 O.2       10 UNK        -0.4914 
     64 N          34.3599    0.8441   -6.8680 N.am      11 UNK        -0.4285 
     65 CA         35.2159   -0.3198   -6.5779 C.3       11 UNK         0.1007 
     66 C          36.7345   -0.0964   -6.8431 C.2       11 UNK         0.5703 
     67 N          37.2018    1.1262   -7.0686 N.am      11 UNK        -0.7361 
     68 O          37.5027   -1.0554   -6.8511 O.2       11 UNK        -0.4986 
     69 C69        34.9803   -0.8574   -5.1421 C.3       12 UNK        -0.0947 
     70 S70        33.2426   -1.3223   -4.8376 S.3       12 UNK        -0.2240 
     71 C71        33.3584   -3.1372   -4.8325 C.3       12 UNK         0.0194 
     72 H72        27.7638   -1.2501    5.3875 H         1 UNK         0.0906 
     73 H73        26.7201    0.0629    4.8357 H         1 UNK         0.0906 
     74 H74        26.2045   -1.6143    4.6463 H         1 UNK         0.0906 
     75 H75        26.3772   -2.2990    2.4938 H         1 UNK         0.3140 
     76 H76        27.9900   -0.9199    0.5885 H         1 UNK         0.1085 
     77 H77        29.6329   -2.6395    1.6772 H         1 UNK         0.0836 
     78 H78        28.6491   -3.8995    0.9940 H         1 UNK         0.0836 
     79 H79        30.5050   -4.9624   -0.7642 H         1 UNK         0.0731 
     80 H80        28.8544   -4.7220   -1.3022 H         1 UNK         0.0731 
     81 H81        32.2258   -3.3848   -2.3800 H         1 UNK         0.1312 
     82 H82        31.5139   -4.2499   -6.5159 H         1 UNK         0.1406 
     83 H83        28.5855   -5.3179   -3.5721 H         1 UNK         0.1631 
     84 H84        28.8938   -6.4761   -6.0775 H         1 UNK         0.0717 
     85 H85        29.5343   -5.3320   -7.2314 H         1 UNK         0.0717 
     86 H86        27.9813   -2.4092   -5.4542 H         1 UNK         0.0934 
     87 H87        28.9529   -2.7835   -6.8519 H         1 UNK         0.0934 
     88 H88        27.0174   -2.4554   -8.3661 H         1 UNK         0.0739 
     89 H89        25.4657   -2.0974   -5.9207 H         1 UNK         0.3093 
     90 H90        22.6055   -0.8057   -7.5911 H         1 UNK         0.0818 
     91 H91        21.4528   -2.7705   -6.6002 H         1 UNK         0.0819 
     92 H92        22.3672   -3.2597   -8.0159 H         1 UNK         0.0819 
     93 H93        22.9913   -3.6141   -6.4113 H         1 UNK         0.0819 
     94 H94        22.9844   -1.6220   -4.8960 H         1 UNK         0.3041 
     95 H95        24.6147    1.2833   -3.6771 H         1 UNK         0.0784 
     96 H96        22.2222    1.9895   -3.8466 H         1 UNK         0.0793 
     97 H97        21.7003    0.3907   -3.3343 H         1 UNK         0.0793 
     98 H98        22.6096    1.4245   -2.2310 H         1 UNK         0.0793 
     99 H99        23.5703   -0.9195   -2.2741 H         1 UNK         0.3024 
    100 H100       24.6260   -2.7322   -1.6987 H         1 UNK         0.1171 
    101 H101       25.2688   -4.0304   -3.7408 H         1 UNK         0.0786 
    102 H102       26.1210   -4.6221   -2.3216 H         1 UNK         0.0786 
    103 H103       26.9553   -3.6013   -3.4898 H         1 UNK         0.0786 
    104 H104       27.4111   -1.6837   -1.6044 H         1 UNK         0.2977 
    105 H105       26.9610   -0.1440   -5.6064 H         1 UNK         0.3127 
    106 H106       28.9555    1.5844   -6.4979 H         1 UNK         0.0770 
    107 H107       26.5069    2.2440   -4.7750 H         1 UNK         0.0814 
    108 H108       27.9919    3.1810   -4.8485 H         1 UNK         0.0814 
    109 H109       28.0186    1.5543   -4.1838 H         1 UNK         0.0814 
    110 H110       25.4713    1.6887   -7.2971 H         1 UNK         0.2983 
    111 H111       25.5672    4.1398   -8.7882 H         1 UNK         0.0947 
    112 H112       23.3203    3.3824   -9.5935 H         1 UNK         0.0806 
    113 H113       23.4617    3.2159   -7.8508 H         1 UNK         0.0806 
    114 H114       23.5922    1.7945   -8.8853 H         1 UNK         0.0806 
    115 H115       26.5469    0.8705   -9.6163 H         1 UNK         0.3000 
    116 H116       26.3461    1.3130  -12.5230 H         1 UNK         0.0850 
    117 H117       27.1543   -1.0042  -12.6931 H         1 UNK         0.0810 
    118 H118       25.7878   -0.9281  -11.5911 H         1 UNK         0.0810 
    119 H119       27.4233   -1.0915  -10.9607 H         1 UNK         0.0810 
    120 H120       28.9367    0.8229  -10.0140 H         1 UNK         0.3040 
    121 H121       30.7528    2.5741  -11.4139 H         1 UNK         0.0766 
    122 H122       32.5232    0.7946  -11.7981 H         1 UNK         0.0812 
    123 H123       31.1232    0.5372  -12.8217 H         1 UNK         0.0812 
    124 H124       31.3532   -0.4473  -11.3777 H         1 UNK         0.0812 
    125 H125       32.6895    2.9429  -10.2015 H         1 UNK         0.3205 
    126 H126       32.4884    2.5307   -7.3091 H         1 UNK         0.0754 
    127 H127       34.5861    3.8822   -7.2826 H         1 UNK         0.0769 
    128 H128       33.3581    4.6844   -8.2456 H         1 UNK         0.0769 
    129 H129       34.6781    3.8233   -9.0376 H         1 UNK         0.0769 
    130 H130       33.9828    1.3255   -6.0652 H         1 UNK         0.2981 
    131 H131       34.9180   -1.1130   -7.2666 H         1 UNK         0.0541 
    132 H132       36.5820    1.9195   -7.0671 H         1 UNK         0.3459 
    133 H133       38.1863    1.2534   -7.2429 H         1 UNK         0.3459 
    134 H134       35.2613   -0.1029   -4.4053 H         1 UNK         0.0612 
    135 H135       35.6169   -1.7218   -4.9440 H         1 UNK         0.0612 
    136 H136       34.1081   -3.4535   -4.1056 H         1 UNK         0.0624 
    137 H137       33.7040   -3.4800   -5.8091 H         1 UNK         0.0624 
@<TRIPOS>BOND
     1    1    2 1    
     2    1   72 1    
     3    1   73 1    
     4    1   74 1    
     5    2    3 2    
     6    2    4 am   BACKBONE|DICT|INTERRES
     7    4    5 1    
     8    4   75 1    
     9    5    6 1    
    10    5   35 1    
    11    5   76 1    
    12    6    7 1    
    13    6   77 1    
    14    6   78 1    
    15    7    8 1    
    16    8    9 1    
    17    8   79 1    
    18    8   80 1    
    19    9   10 ar   
    20    9   14 ar   
    21   10   11 ar   
    22   10   81 1    
    23   11   12 ar   
    24   11   71 1    
    25   12   13 ar   
    26   12   82 1    
    27   13   14 ar   
    28   13   15 1    
    29   14   83 1    
    30   15   16 1    
    31   15   84 1    
    32   15   85 1    
    33   16   17 1    
    34   17   18 1    
    35   17   86 1    
    36   17   87 1    
    37   18   19 1    
    38   18   37 1    
    39   18   88 1    
    40   19   20 am   BACKBONE|DICT|INTERRES
    41   19   89 1    
    42   20   21 2    
    43   20   22 1    
    44   22   23 1    
    45   22   24 1    
    46   22   90 1    
    47   23   91 1    
    48   23   92 1    
    49   23   93 1    
    50   24   25 am   BACKBONE|DICT|INTERRES
    51   24   94 1    
    52   25   26 2    
    53   25   27 1    
    54   27   28 1    
    55   27   29 1    
    56   27   95 1    
    57   28   96 1    
    58   28   97 1    
    59   28   98 1    
    60   29   30 am   BACKBONE|DICT|INTERRES
    61   29   99 1    
    62   30   31 2    
    63   30   32 1    
    64   32   33 1    
    65   32   34 1    
    66   32  100 1    
    67   33  101 1    
    68   33  102 1    
    69   33  103 1    
    70   34   35 am   BACKBONE|DICT|INTERRES
    71   34  104 1    
    72   35   36 2    
    73   37   38 2    
    74   37   39 am   BACKBONE|DICT|INTERRES
    75   39   40 1    
    76   39  105 1    
    77   40   41 1    
    78   40   42 1    
    79   40  106 1    
    80   41  107 1    
    81   41  108 1    
    82   41  109 1    
    83   42   43 2    
    84   42   44 am   BACKBONE|DICT|INTERRES
    85   44   45 1    
    86   44  110 1    
    87   45   46 1    
    88   45   47 1    
    89   45  111 1    
    90   46  112 1    
    91   46  113 1    
    92   46  114 1    
    93   47   48 2    
    94   47   49 am   BACKBONE|DICT|INTERRES
    95   49   50 1    
    96   49  115 1    
    97   50   51 1    
    98   50   52 1    
    99   50  116 1    
   100   51  117 1    
   101   51  118 1    
   102   51  119 1    
   103   52   53 2    
   104   52   54 am   BACKBONE|DICT|INTERRES
   105   54   55 1    
   106   54  120 1    
   107   55   56 1    
   108   55   57 1    
   109   55  121 1    
   110   56  122 1    
   111   56  123 1    
   112   56  124 1    
   113   57   58 2    
   114   57   59 am   BACKBONE|DICT|INTERRES
   115   59   60 1    
   116   59  125 1    
   117   60   61 1    
   118   60   62 1    
   119   60  126 1    
   120   61  127 1    
   121   61  128 1    
   122   61  129 1    
   123   62   63 2    
   124   62   64 am   BACKBONE|DICT|INTERRES
   125   64   65 1    
   126   64  130 1    
   127   65   66 1    
   128   65   69 1    
   129   65  131 1    
   130   66   67 am   BACKBONE|DICT|INTERRES
   131   66   68 2    
   132   67  132 1    
   133   67  133 1    
   134   69   70 1    
   135   69  134 1    
   136   69  135 1    
   137   70   71 1    
   138   71  136 1    
   139   71  137 1    
@<TRIPOS>SUBSTRUCTURE
     1 UNK         1 GROUP             0       ****    0 ROOT    
