@<TRIPOS>MOLECULE
3R137
137   139    1
SMALL
USER_CHARGES


@<TRIPOS>ATOM
      1 CA         29.0956   -5.7570   -4.5338 C.3       0 UNK        -0.2020 
      2 C          27.9766   -5.1275   -3.7189 C.2       0 UNK         0.4855 
      3 O          26.8024   -5.3351   -4.0274 O.2       0 UNK        -0.5197 
      4 N          28.3299   -4.3787   -2.6670 N.am      1 UNK        -0.4892 
      5 CA         27.3868   -3.7415   -1.7401 C.3       1 UNK         0.0835 
      6 C6         28.0505   -3.2967   -0.4081 C.3       12 UNK        -0.0855 
      7 S7         29.2396   -4.5104    0.2702 S.3       12 UNK        -0.2931 
      8 C8         30.7028   -3.4783    0.6264 C.3       12 UNK         0.0378 
      9 C9         31.1714   -2.6637   -0.5745 C.ar      12 UNK        -0.0802 
     10 C10        31.7734   -3.2912   -1.6684 C.ar      12 UNK        -0.0944 
     11 C11        32.2169   -2.5392   -2.7611 C.ar      12 UNK        -0.0787 
     12 C12        32.0564   -1.1497   -2.7529 C.ar      12 UNK        -0.0862 
     13 C13        31.4382   -0.5099   -1.6724 C.ar      12 UNK        -0.0733 
     14 C14        31.0102   -1.2742   -0.5832 C.ar      12 UNK        -0.0832 
     15 C15        31.2477    1.0054   -1.6472 C.3       12 UNK         0.0240 
     16 S16        30.6246    1.7107   -3.2109 S.3       12 UNK        -0.2522 
     17 C17        29.0192    0.8672   -3.4097 C.3       12 UNK        -0.0967 
     18 CA         28.4438    1.0779   -4.8358 C.3       5 UNK         0.0660 
     19 N          27.7801   -0.1219   -5.3456 N.am      5 UNK        -0.4015 
     20 C          27.5322   -0.3503   -6.6424 C.2       4 UNK         0.4946 
     21 O          27.6737    0.4969   -7.5243 O.2       4 UNK        -0.5353 
     22 CA         27.0694   -1.7621   -7.0236 C.3       4 UNK         0.0277 
     23 CB         28.2159   -2.7732   -6.8557 C.3       4 UNK        -0.1981 
     24 N          25.9341   -2.1708   -6.2016 N.am      4 UNK        -0.4209 
     25 C          24.6590   -2.1647   -6.6135 C.2       3 UNK         0.4942 
     26 O          24.3116   -1.9273   -7.7704 O.2       3 UNK        -0.5208 
     27 CA         23.5718   -2.4647   -5.5633 C.3       3 UNK         0.0250 
     28 CB         23.1278   -3.9335   -5.6590 C.3       3 UNK        -0.1990 
     29 N          23.9632   -2.1734   -4.1808 N.am      3 UNK        -0.4232 
     30 C          24.3449   -0.9750   -3.7165 C.2       2 UNK         0.4993 
     31 O          24.4225    0.0400   -4.4060 O.2       2 UNK        -0.5286 
     32 CA         24.8049   -0.9192   -2.2517 C.3       2 UNK         0.0209 
     33 CB         23.6068   -0.6953   -1.3161 C.3       2 UNK        -0.1931 
     34 N          25.5571   -2.1059   -1.8236 N.am      2 UNK        -0.4546 
     35 C          26.6849   -2.5409   -2.4048 C.2       1 UNK         0.5154 
     36 O          27.1808   -2.0077   -3.4030 O.2       1 UNK        -0.5181 
     37 C          27.5760    2.3481   -4.9406 C.2       5 UNK         0.5014 
     38 O          28.0908    3.3878   -5.3547 O.2       5 UNK        -0.5248 
     39 N          26.2767    2.2564   -4.6114 N.am      6 UNK        -0.4434 
     40 CA         25.3410    3.3853   -4.7175 C.3       6 UNK         0.0363 
     41 CB         24.1347    3.1723   -3.7879 C.3       6 UNK        -0.1936 
     42 C          24.8818    3.6227   -6.1662 C.2       6 UNK         0.5081 
     43 O          24.5062    4.7447   -6.5053 O.2       6 UNK        -0.5248 
     44 N          24.9559    2.5785   -7.0035 N.am      7 UNK        -0.4718 
     45 CA         24.7493    2.6492   -8.4527 C.3       7 UNK         0.0273 
     46 CB         24.4272    1.2405   -8.9771 C.3       7 UNK        -0.1935 
     47 C          25.9568    3.2426   -9.2067 C.2       7 UNK         0.5018 
     48 O          25.8281    3.5342  -10.3964 O.2       7 UNK        -0.5186 
     49 N          27.0953    3.3990   -8.5123 N.am      8 UNK        -0.4240 
     50 CA         28.3927    3.8756   -9.0007 C.3       8 UNK         0.0235 
     51 CB         28.3101    5.3493   -9.4539 C.3       8 UNK        -0.2000 
     52 C          29.0125    2.9446  -10.0607 C.2       8 UNK         0.4941 
     53 O          29.6306    3.4227  -11.0150 O.2       8 UNK        -0.5273 
     54 N          28.8465    1.6285   -9.8713 N.am      9 UNK        -0.4262 
     55 CA         29.4877    0.5902  -10.6771 C.3       9 UNK         0.0264 
     56 CB         28.7193   -0.7290  -10.4930 C.3       9 UNK        -0.1955 
     57 C          30.9606    0.4163  -10.2711 C.2       9 UNK         0.5031 
     58 O          31.3538    0.8089   -9.1678 O.2       9 UNK        -0.5390 
     59 N          31.7470   -0.2146  -11.1519 N.am      10 UNK        -0.4204 
     60 CA         33.1650   -0.5307  -10.9497 C.3       10 UNK         0.0237 
     61 CB         33.8207   -0.7783  -12.3219 C.3       10 UNK        -0.1985 
     62 C          33.3692   -1.7075   -9.9718 C.2       10 UNK         0.4970 
     63 O          33.9085   -2.7464  -10.3579 O.2       10 UNK        -0.4914 
     64 N          32.9092   -1.5273   -8.7289 N.am      11 UNK        -0.4285 
     65 CA         33.0526   -2.4712   -7.6151 C.3       11 UNK         0.1007 
     66 C          34.5393   -2.6898   -7.2153 C.2       11 UNK         0.5703 
     67 N          34.9334   -3.9214   -6.9213 N.am      11 UNK        -0.7361 
     68 O          35.3248   -1.7467   -7.1367 O.2       11 UNK        -0.4986 
     69 C69        32.1879   -2.0233   -6.4058 C.3       12 UNK        -0.0947 
     70 S70        31.7299   -3.4278   -5.3369 S.3       12 UNK        -0.2240 
     71 C71        32.8813   -3.2308   -3.9413 C.3       12 UNK         0.0194 
     72 H72        28.9199   -6.8261   -4.6492 H         1 UNK         0.0906 
     73 H73        29.1401   -5.3110   -5.5263 H         1 UNK         0.0906 
     74 H74        30.0664   -5.6267   -4.0560 H         1 UNK         0.0906 
     75 H75        29.3058   -4.2123   -2.4664 H         1 UNK         0.3140 
     76 H76        26.6201   -4.4828   -1.5030 H         1 UNK         0.1085 
     77 H77        27.2835   -3.1301    0.3504 H         1 UNK         0.0836 
     78 H78        28.5408   -2.3318   -0.5308 H         1 UNK         0.0836 
     79 H79        31.5160   -4.1245    0.9598 H         1 UNK         0.0731 
     80 H80        30.4725   -2.8245    1.4691 H         1 UNK         0.0731 
     81 H81        31.8991   -4.3655   -1.6642 H         1 UNK         0.1312 
     82 H82        32.4041   -0.5651   -3.5927 H         1 UNK         0.1406 
     83 H83        30.5458   -0.7856    0.2630 H         1 UNK         0.1631 
     84 H84        32.2063    1.4705   -1.4143 H         1 UNK         0.0717 
     85 H85        30.5635    1.2949   -0.8480 H         1 UNK         0.0717 
     86 H86        29.1907   -0.1952   -3.2294 H         1 UNK         0.0934 
     87 H87        28.3266    1.1911   -2.6302 H         1 UNK         0.0934 
     88 H88        29.2878    1.2350   -5.5126 H         1 UNK         0.0739 
     89 H89        27.6090   -0.8631   -4.6665 H         1 UNK         0.3093 
     90 H90        26.7890   -1.7469   -8.0789 H         1 UNK         0.0818 
     91 H91        29.0739   -2.5008   -7.4707 H         1 UNK         0.0819 
     92 H92        28.5620   -2.8310   -5.8228 H         1 UNK         0.0819 
     93 H93        27.9053   -3.7727   -7.1598 H         1 UNK         0.0819 
     94 H94        26.1266   -2.3640   -5.2258 H         1 UNK         0.3041 
     95 H95        22.7154   -1.8295   -5.7990 H         1 UNK         0.0784 
     96 H96        22.8046   -4.1790   -6.6717 H         1 UNK         0.0793 
     97 H97        23.9390   -4.6163   -5.4011 H         1 UNK         0.0793 
     98 H98        22.2885   -4.1402   -4.9947 H         1 UNK         0.0793 
     99 H99        23.9633   -2.9517   -3.5377 H         1 UNK         0.3024 
    100 H100       25.4730   -0.0600   -2.1585 H         1 UNK         0.1171 
    101 H101       23.9298   -0.5459   -0.2856 H         1 UNK         0.0786 
    102 H102       23.0451    0.1935   -1.6083 H         1 UNK         0.0786 
    103 H103       22.9151   -1.5384   -1.3333 H         1 UNK         0.0786 
    104 H104       25.2108   -2.5871   -1.0055 H         1 UNK         0.2977 
    105 H105       25.8694    1.3568   -4.3711 H         1 UNK         0.3127 
    106 H106       25.8550    4.2896   -4.3838 H         1 UNK         0.0770 
    107 H107       23.4747    2.3829   -4.1470 H         1 UNK         0.0814 
    108 H108       23.5354    4.0813   -3.7248 H         1 UNK         0.0814 
    109 H109       24.4474    2.9189   -2.7750 H         1 UNK         0.0814 
    110 H110       25.2597    1.6895   -6.6313 H         1 UNK         0.2983 
    111 H111       23.8912    3.2949   -8.6524 H         1 UNK         0.0947 
    112 H112       25.2622    0.5541   -8.8326 H         1 UNK         0.0806 
    113 H113       24.2068    1.2614  -10.0451 H         1 UNK         0.0806 
    114 H114       23.5564    0.8174   -8.4759 H         1 UNK         0.0806 
    115 H115       27.0890    3.0944   -7.5478 H         1 UNK         0.3000 
    116 H116       29.0654    3.8355   -8.1423 H         1 UNK         0.0850 
    117 H117       29.3014    5.7441   -9.6796 H         1 UNK         0.0810 
    118 H118       27.8810    5.9798   -8.6752 H         1 UNK         0.0810 
    119 H119       27.7035    5.4645  -10.3526 H         1 UNK         0.0810 
    120 H120       28.3716    1.3111   -9.0272 H         1 UNK         0.3040 
    121 H121       29.4418    0.8822  -11.7285 H         1 UNK         0.0766 
    122 H122       27.6566   -0.6042  -10.7023 H         1 UNK         0.0812 
    123 H123       28.8176   -1.1095   -9.4767 H         1 UNK         0.0812 
    124 H124       29.0936   -1.5014  -11.1656 H         1 UNK         0.0812 
    125 H125       31.3376   -0.5393  -12.0165 H         1 UNK         0.3205 
    126 H126       33.6529    0.3400  -10.5058 H         1 UNK         0.0754 
    127 H127       34.8871   -0.9821  -12.2146 H         1 UNK         0.0769 
    128 H128       33.7246    0.0927  -12.9706 H         1 UNK         0.0769 
    129 H129       33.3755   -1.6310  -12.8363 H         1 UNK         0.0769 
    130 H130       32.4528   -0.6428   -8.5255 H         1 UNK         0.2981 
    131 H131       32.6585   -3.4211   -7.9826 H         1 UNK         0.0541 
    132 H132       35.8911   -4.0790   -6.6505 H         1 UNK         0.3459 
    133 H133       34.2900   -4.6961   -6.9652 H         1 UNK         0.3459 
    134 H134       32.6787   -1.2367   -5.8309 H         1 UNK         0.0612 
    135 H135       31.2507   -1.5875   -6.7552 H         1 UNK         0.0612 
    136 H136       33.7688   -2.6768   -4.2495 H         1 UNK         0.0624 
    137 H137       33.2343   -4.2203   -3.6469 H         1 UNK         0.0624 
@<TRIPOS>BOND
     1    1    2 1    
     2    1   72 1    
     3    1   73 1    
     4    1   74 1    
     5    2    3 2    
     6    2    4 am   BACKBONE|DICT|INTERRES
     7    4    5 1    
     8    4   75 1    
     9    5    6 1    
    10    5   35 1    
    11    5   76 1    
    12    6    7 1    
    13    6   77 1    
    14    6   78 1    
    15    7    8 1    
    16    8    9 1    
    17    8   79 1    
    18    8   80 1    
    19    9   10 ar   
    20    9   14 ar   
    21   10   11 ar   
    22   10   81 1    
    23   11   12 ar   
    24   11   71 1    
    25   12   13 ar   
    26   12   82 1    
    27   13   14 ar   
    28   13   15 1    
    29   14   83 1    
    30   15   16 1    
    31   15   84 1    
    32   15   85 1    
    33   16   17 1    
    34   17   18 1    
    35   17   86 1    
    36   17   87 1    
    37   18   19 1    
    38   18   37 1    
    39   18   88 1    
    40   19   20 am   BACKBONE|DICT|INTERRES
    41   19   89 1    
    42   20   21 2    
    43   20   22 1    
    44   22   23 1    
    45   22   24 1    
    46   22   90 1    
    47   23   91 1    
    48   23   92 1    
    49   23   93 1    
    50   24   25 am   BACKBONE|DICT|INTERRES
    51   24   94 1    
    52   25   26 2    
    53   25   27 1    
    54   27   28 1    
    55   27   29 1    
    56   27   95 1    
    57   28   96 1    
    58   28   97 1    
    59   28   98 1    
    60   29   30 am   BACKBONE|DICT|INTERRES
    61   29   99 1    
    62   30   31 2    
    63   30   32 1    
    64   32   33 1    
    65   32   34 1    
    66   32  100 1    
    67   33  101 1    
    68   33  102 1    
    69   33  103 1    
    70   34   35 am   BACKBONE|DICT|INTERRES
    71   34  104 1    
    72   35   36 2    
    73   37   38 2    
    74   37   39 am   BACKBONE|DICT|INTERRES
    75   39   40 1    
    76   39  105 1    
    77   40   41 1    
    78   40   42 1    
    79   40  106 1    
    80   41  107 1    
    81   41  108 1    
    82   41  109 1    
    83   42   43 2    
    84   42   44 am   BACKBONE|DICT|INTERRES
    85   44   45 1    
    86   44  110 1    
    87   45   46 1    
    88   45   47 1    
    89   45  111 1    
    90   46  112 1    
    91   46  113 1    
    92   46  114 1    
    93   47   48 2    
    94   47   49 am   BACKBONE|DICT|INTERRES
    95   49   50 1    
    96   49  115 1    
    97   50   51 1    
    98   50   52 1    
    99   50  116 1    
   100   51  117 1    
   101   51  118 1    
   102   51  119 1    
   103   52   53 2    
   104   52   54 am   BACKBONE|DICT|INTERRES
   105   54   55 1    
   106   54  120 1    
   107   55   56 1    
   108   55   57 1    
   109   55  121 1    
   110   56  122 1    
   111   56  123 1    
   112   56  124 1    
   113   57   58 2    
   114   57   59 am   BACKBONE|DICT|INTERRES
   115   59   60 1    
   116   59  125 1    
   117   60   61 1    
   118   60   62 1    
   119   60  126 1    
   120   61  127 1    
   121   61  128 1    
   122   61  129 1    
   123   62   63 2    
   124   62   64 am   BACKBONE|DICT|INTERRES
   125   64   65 1    
   126   64  130 1    
   127   65   66 1    
   128   65   69 1    
   129   65  131 1    
   130   66   67 am   BACKBONE|DICT|INTERRES
   131   66   68 2    
   132   67  132 1    
   133   67  133 1    
   134   69   70 1    
   135   69  134 1    
   136   69  135 1    
   137   70   71 1    
   138   71  136 1    
   139   71  137 1    
@<TRIPOS>SUBSTRUCTURE
     1 UNK         1 GROUP             0       ****    0 ROOT    
