@<TRIPOS>MOLECULE
3R137
137   139    1
SMALL
USER_CHARGES


@<TRIPOS>ATOM
      1 CA         25.3845    2.4110    1.8459 C.3       0 UNK        -0.2020 
      2 C          25.9081    1.4674    0.7735 C.2       0 UNK         0.4855 
      3 O          25.6526    1.6851   -0.4111 O.2       0 UNK        -0.5197 
      4 N          26.6461    0.4253    1.1769 N.am      1 UNK        -0.4892 
      5 CA         27.1665   -0.6165    0.2878 C.3       1 UNK         0.0835 
      6 C6         28.3307   -1.3867    0.9647 C.3       12 UNK        -0.0855 
      7 S7         29.1618   -2.5828   -0.1355 S.3       12 UNK        -0.2931 
      8 C8         30.2658   -1.4901   -1.0952 C.3       12 UNK         0.0378 
      9 C9         30.6138   -1.9823   -2.5031 C.ar      12 UNK        -0.0802 
     10 C10        31.6162   -1.3033   -3.2026 C.ar      12 UNK        -0.0944 
     11 C11        31.9901   -1.7031   -4.4875 C.ar      12 UNK        -0.0787 
     12 C12        31.3498   -2.7926   -5.0828 C.ar      12 UNK        -0.0862 
     13 C13        30.3464   -3.4873   -4.4027 C.ar      12 UNK        -0.0733 
     14 C14        29.9753   -3.0704   -3.1200 C.ar      12 UNK        -0.0832 
     15 C15        29.7205   -4.7352   -5.0170 C.3       12 UNK         0.0240 
     16 S16        29.0659   -4.4723   -6.6973 S.3       12 UNK        -0.2522 
     17 C17        27.5200   -3.5731   -6.3607 C.3       12 UNK        -0.0967 
     18 CA         27.3559   -2.3151   -7.2509 C.3       5 UNK         0.0660 
     19 N          25.9388   -2.0093   -7.4590 N.am      5 UNK        -0.4015 
     20 C          25.4195   -1.0207   -8.1962 C.2       4 UNK         0.4946 
     21 O          26.0898   -0.1662   -8.7712 O.2       4 UNK        -0.5353 
     22 CA         23.8844   -0.9440   -8.2855 C.3       4 UNK         0.0277 
     23 CB         23.3222   -2.0078   -9.2492 C.3       4 UNK        -0.1981 
     24 N          23.2201   -0.9738   -6.9741 N.am      4 UNK        -0.4209 
     25 C          23.1792   -1.9783   -6.0884 C.2       3 UNK         0.4942 
     26 O          23.6234   -3.1105   -6.2986 O.2       3 UNK        -0.5208 
     27 CA         22.5683   -1.6429   -4.7199 C.3       3 UNK         0.0250 
     28 CB         21.0967   -2.0838   -4.6669 C.3       3 UNK        -0.1990 
     29 N          23.2997   -2.2629   -3.6115 N.am      3 UNK        -0.4232 
     30 C          24.6035   -2.1011   -3.3434 C.2       2 UNK         0.4993 
     31 O          25.3839   -1.4229   -4.0224 O.2       2 UNK        -0.5286 
     32 CA         25.1297   -2.8407   -2.1098 C.3       2 UNK         0.0209 
     33 CB         25.8081   -4.1591   -2.5178 C.3       2 UNK        -0.1931 
     34 N          26.1083   -1.9886   -1.4433 N.am      2 UNK        -0.4546 
     35 C          26.0275   -1.5486   -0.1828 C.2       1 UNK         0.5154 
     36 O          25.1258   -1.8601    0.6008 O.2       1 UNK        -0.5181 
     37 C          28.1539   -1.1133   -6.7074 C.2       5 UNK         0.5014 
     38 O          29.1277   -0.6885   -7.3366 O.2       5 UNK        -0.5248 
     39 N          27.7008   -0.5640   -5.5715 N.am      6 UNK        -0.4434 
     40 CA         28.3094    0.6092   -4.9444 C.3       6 UNK         0.0363 
     41 CB         27.9395    0.6358   -3.4545 C.3       6 UNK        -0.1936 
     42 C          27.8900    1.9211   -5.6261 C.2       6 UNK         0.5081 
     43 O          28.6645    2.8766   -5.6132 O.2       6 UNK        -0.5248 
     44 N          26.6812    1.9488   -6.2069 N.am      7 UNK        -0.4718 
     45 CA         26.1010    3.1199   -6.8706 C.3       7 UNK         0.0273 
     46 CB         24.5972    2.8980   -7.0970 C.3       7 UNK        -0.1935 
     47 C          26.8108    3.4697   -8.1880 C.2       7 UNK         0.5018 
     48 O          27.1309    4.6379   -8.4102 O.2       7 UNK        -0.5186 
     49 N          27.0670    2.4532   -9.0233 N.am      8 UNK        -0.4240 
     50 CA         27.8440    2.5763  -10.2597 C.3       8 UNK         0.0235 
     51 CB         27.4548    1.4369  -11.2167 C.3       8 UNK        -0.2000 
     52 C          29.3622    2.5637  -10.0089 C.2       8 UNK         0.4941 
     53 O          30.1133    2.9171  -10.9184 O.2       8 UNK        -0.5273 
     54 N          29.7764    2.1491   -8.8005 N.am      9 UNK        -0.4262 
     55 CA         31.1520    1.9542   -8.3361 C.3       9 UNK         0.0264 
     56 CB         31.9171    3.2928   -8.2719 C.3       9 UNK        -0.1955 
     57 C          31.8702    0.8815   -9.1708 C.2       9 UNK         0.5031 
     58 O          32.8738    1.1677   -9.8283 O.2       9 UNK        -0.5390 
     59 N          31.3364   -0.3482   -9.1172 N.am      10 UNK        -0.4204 
     60 CA         31.8039   -1.5265   -9.8644 C.3       10 UNK         0.0237 
     61 CB         30.8674   -2.7061   -9.5620 C.3       10 UNK        -0.1985 
     62 C          33.2726   -1.9264   -9.6101 C.2       10 UNK         0.4970 
     63 O          33.8514   -2.6509  -10.4204 O.2       10 UNK        -0.4914 
     64 N          33.8451   -1.4336   -8.5070 N.am      11 UNK        -0.4285 
     65 CA         35.2685   -1.5047   -8.1548 C.3       11 UNK         0.1007 
     66 C          36.2029   -0.7087   -9.1133 C.2       11 UNK         0.5703 
     67 N          35.7056    0.2483   -9.8904 N.am      11 UNK        -0.7361 
     68 O          37.4031   -0.9689   -9.1517 O.2       11 UNK        -0.4986 
     69 C69        35.5015   -1.0573   -6.6863 C.3       12 UNK        -0.0947 
     70 S70        34.5443   -2.0374   -5.4835 S.3       12 UNK        -0.2240 
     71 C71        33.0901   -0.9681   -5.2346 C.3       12 UNK         0.0194 
     72 H72        25.7438    3.4232    1.6630 H         1 UNK         0.0906 
     73 H73        25.7046    2.1132    2.8441 H         1 UNK         0.0906 
     74 H74        24.2952    2.4282    1.8302 H         1 UNK         0.0906 
     75 H75        26.7920    0.2741    2.1652 H         1 UNK         0.3140 
     76 H76        27.5652   -0.1079   -0.5915 H         1 UNK         0.1085 
     77 H77        27.9684   -1.9271    1.8415 H         1 UNK         0.0836 
     78 H78        29.0801   -0.6850    1.3354 H         1 UNK         0.0836 
     79 H79        29.8197   -0.4996   -1.1823 H         1 UNK         0.0731 
     80 H80        31.1857   -1.3588   -0.5233 H         1 UNK         0.0731 
     81 H81        32.1141   -0.4621   -2.7395 H         1 UNK         0.1312 
     82 H82        31.6508   -3.1149   -6.0702 H         1 UNK         0.1406 
     83 H83        29.2031   -3.6190   -2.6009 H         1 UNK         0.1631 
     84 H84        28.9262   -5.1326   -4.3832 H         1 UNK         0.0717 
     85 H85        30.4859   -5.5108   -5.0654 H         1 UNK         0.0717 
     86 H86        26.7108   -4.2800   -6.5532 H         1 UNK         0.0934 
     87 H87        27.4417   -3.3253   -5.3011 H         1 UNK         0.0934 
     88 H88        27.7525   -2.5391   -8.2433 H         1 UNK         0.0739 
     89 H89        25.2689   -2.6201   -6.9964 H         1 UNK         0.3093 
     90 H90        23.6443    0.0287   -8.7168 H         1 UNK         0.0818 
     91 H91        23.7529   -1.8926  -10.2448 H         1 UNK         0.0819 
     92 H92        23.5414   -3.0240   -8.9209 H         1 UNK         0.0819 
     93 H93        22.2410   -1.9160   -9.3521 H         1 UNK         0.0819 
     94 H94        22.8192   -0.0911   -6.6876 H         1 UNK         0.3041 
     95 H95        22.6147   -0.5621   -4.5699 H         1 UNK         0.0784 
     96 H96        20.5186   -1.6170   -5.4658 H         1 UNK         0.0793 
     97 H97        20.9958   -3.1642   -4.7814 H         1 UNK         0.0793 
     98 H98        20.6289   -1.8001   -3.7238 H         1 UNK         0.0793 
     99 H99        22.7593   -2.8739   -3.0168 H         1 UNK         0.3024 
    100 H100       24.2935   -3.0625   -1.4426 H         1 UNK         0.1171 
    101 H101       26.1633   -4.7051   -1.6436 H         1 UNK         0.0786 
    102 H102       25.1129   -4.8110   -3.0486 H         1 UNK         0.0786 
    103 H103       26.6628   -3.9895   -3.1721 H         1 UNK         0.0786 
    104 H104       26.8471   -1.6459   -2.0400 H         1 UNK         0.2977 
    105 H105       26.8763   -0.9515   -5.1154 H         1 UNK         0.3127 
    106 H106       29.3960    0.5214   -5.0203 H         1 UNK         0.0770 
    107 H107       28.4559    1.4461   -2.9383 H         1 UNK         0.0814 
    108 H108       26.8689    0.7813   -3.3025 H         1 UNK         0.0814 
    109 H109       28.2246   -0.2960   -2.9704 H         1 UNK         0.0814 
    110 H110       26.1238    1.1081   -6.1830 H         1 UNK         0.2983 
    111 H111       26.2172    3.9740   -6.1992 H         1 UNK         0.0947 
    112 H112       24.4082    2.0647   -7.7724 H         1 UNK         0.0806 
    113 H113       24.1374    3.7831   -7.5389 H         1 UNK         0.0806 
    114 H114       24.0782    2.6992   -6.1591 H         1 UNK         0.0806 
    115 H115       26.7358    1.5161   -8.7925 H         1 UNK         0.3000 
    116 H116       27.5958    3.5251  -10.7405 H         1 UNK         0.0850 
    117 H117       27.9545    1.5482  -12.1799 H         1 UNK         0.0810 
    118 H118       26.3814    1.4254  -11.4066 H         1 UNK         0.0810 
    119 H119       27.7348    0.4616  -10.8162 H         1 UNK         0.0810 
    120 H120       29.0595    1.8641   -8.1479 H         1 UNK         0.3040 
    121 H121       31.0818    1.5679   -7.3177 H         1 UNK         0.0766 
    122 H122       32.0511    3.7361   -9.2590 H         1 UNK         0.0812 
    123 H123       32.9103    3.1514   -7.8440 H         1 UNK         0.0812 
    124 H124       31.3936    4.0165   -7.6471 H         1 UNK         0.0812 
    125 H125       30.5131   -0.4847   -8.5290 H         1 UNK         0.3205 
    126 H126       31.7210   -1.2862  -10.9261 H         1 UNK         0.0754 
    127 H127       31.1546   -3.5941  -10.1268 H         1 UNK         0.0769 
    128 H128       29.8356   -2.4737   -9.8266 H         1 UNK         0.0769 
    129 H129       30.8907   -2.9689   -8.5045 H         1 UNK         0.0769 
    130 H130       33.2803   -0.8471   -7.9159 H         1 UNK         0.2981 
    131 H131       35.5648   -2.5519   -8.2379 H         1 UNK         0.0541 
    132 H132       34.7189    0.4885   -9.8616 H         1 UNK         0.3459 
    133 H133       36.3238    0.7513  -10.5062 H         1 UNK         0.3459 
    134 H134       35.2648    0.0011   -6.5606 H         1 UNK         0.0612 
    135 H135       36.5551   -1.1646   -6.4219 H         1 UNK         0.0612 
    136 H136       33.3979   -0.0707   -4.6956 H         1 UNK         0.0624 
    137 H137       32.6929   -0.6325   -6.1917 H         1 UNK         0.0624 
@<TRIPOS>BOND
     1    1    2 1    
     2    1   72 1    
     3    1   73 1    
     4    1   74 1    
     5    2    3 2    
     6    2    4 am   BACKBONE|DICT|INTERRES
     7    4    5 1    
     8    4   75 1    
     9    5    6 1    
    10    5   35 1    
    11    5   76 1    
    12    6    7 1    
    13    6   77 1    
    14    6   78 1    
    15    7    8 1    
    16    8    9 1    
    17    8   79 1    
    18    8   80 1    
    19    9   10 ar   
    20    9   14 ar   
    21   10   11 ar   
    22   10   81 1    
    23   11   12 ar   
    24   11   71 1    
    25   12   13 ar   
    26   12   82 1    
    27   13   14 ar   
    28   13   15 1    
    29   14   83 1    
    30   15   16 1    
    31   15   84 1    
    32   15   85 1    
    33   16   17 1    
    34   17   18 1    
    35   17   86 1    
    36   17   87 1    
    37   18   19 1    
    38   18   37 1    
    39   18   88 1    
    40   19   20 am   BACKBONE|DICT|INTERRES
    41   19   89 1    
    42   20   21 2    
    43   20   22 1    
    44   22   23 1    
    45   22   24 1    
    46   22   90 1    
    47   23   91 1    
    48   23   92 1    
    49   23   93 1    
    50   24   25 am   BACKBONE|DICT|INTERRES
    51   24   94 1    
    52   25   26 2    
    53   25   27 1    
    54   27   28 1    
    55   27   29 1    
    56   27   95 1    
    57   28   96 1    
    58   28   97 1    
    59   28   98 1    
    60   29   30 am   BACKBONE|DICT|INTERRES
    61   29   99 1    
    62   30   31 2    
    63   30   32 1    
    64   32   33 1    
    65   32   34 1    
    66   32  100 1    
    67   33  101 1    
    68   33  102 1    
    69   33  103 1    
    70   34   35 am   BACKBONE|DICT|INTERRES
    71   34  104 1    
    72   35   36 2    
    73   37   38 2    
    74   37   39 am   BACKBONE|DICT|INTERRES
    75   39   40 1    
    76   39  105 1    
    77   40   41 1    
    78   40   42 1    
    79   40  106 1    
    80   41  107 1    
    81   41  108 1    
    82   41  109 1    
    83   42   43 2    
    84   42   44 am   BACKBONE|DICT|INTERRES
    85   44   45 1    
    86   44  110 1    
    87   45   46 1    
    88   45   47 1    
    89   45  111 1    
    90   46  112 1    
    91   46  113 1    
    92   46  114 1    
    93   47   48 2    
    94   47   49 am   BACKBONE|DICT|INTERRES
    95   49   50 1    
    96   49  115 1    
    97   50   51 1    
    98   50   52 1    
    99   50  116 1    
   100   51  117 1    
   101   51  118 1    
   102   51  119 1    
   103   52   53 2    
   104   52   54 am   BACKBONE|DICT|INTERRES
   105   54   55 1    
   106   54  120 1    
   107   55   56 1    
   108   55   57 1    
   109   55  121 1    
   110   56  122 1    
   111   56  123 1    
   112   56  124 1    
   113   57   58 2    
   114   57   59 am   BACKBONE|DICT|INTERRES
   115   59   60 1    
   116   59  125 1    
   117   60   61 1    
   118   60   62 1    
   119   60  126 1    
   120   61  127 1    
   121   61  128 1    
   122   61  129 1    
   123   62   63 2    
   124   62   64 am   BACKBONE|DICT|INTERRES
   125   64   65 1    
   126   64  130 1    
   127   65   66 1    
   128   65   69 1    
   129   65  131 1    
   130   66   67 am   BACKBONE|DICT|INTERRES
   131   66   68 2    
   132   67  132 1    
   133   67  133 1    
   134   69   70 1    
   135   69  134 1    
   136   69  135 1    
   137   70   71 1    
   138   71  136 1    
   139   71  137 1    
@<TRIPOS>SUBSTRUCTURE
     1 UNK         1 GROUP             0       ****    0 ROOT    
