@<TRIPOS>MOLECULE
3R137
137   139    1
SMALL
USER_CHARGES


@<TRIPOS>ATOM
      1 CA         22.5259   -4.0354   -3.9441 C.3       0 UNK        -0.2020 
      2 C          23.4243   -4.5341   -2.8234 C.2       0 UNK         0.4855 
      3 O          22.9428   -4.7964   -1.7224 O.2       0 UNK        -0.5197 
      4 N          24.7291   -4.6610   -3.0885 N.am      1 UNK        -0.4892 
      5 CA         25.7414   -5.1104   -2.1263 C.3       1 UNK         0.0835 
      6 C6         27.0612   -5.5317   -2.8243 C.3       12 UNK        -0.0855 
      7 S7         27.7246   -4.2787   -3.9802 S.3       12 UNK        -0.2931 
      8 C8         29.1734   -3.6771   -3.0595 C.3       12 UNK         0.0378 
      9 C9         29.7532   -2.4378   -3.7211 C.ar      12 UNK        -0.0802 
     10 C10        30.5273   -2.5603   -4.8779 C.ar      12 UNK        -0.0944 
     11 C11        31.0461   -1.4272   -5.5104 C.ar      12 UNK        -0.0787 
     12 C12        30.7878   -0.1618   -4.9752 C.ar      12 UNK        -0.0862 
     13 C13        30.0116   -0.0259   -3.8184 C.ar      12 UNK        -0.0733 
     14 C14        29.5062   -1.1685   -3.1900 C.ar      12 UNK        -0.0832 
     15 C15        29.7058    1.3580   -3.2579 C.3       12 UNK         0.0240 
     16 S16        27.9271    1.7650   -3.3190 S.3       12 UNK        -0.2522 
     17 C17        27.5338    1.4803   -5.0781 C.3       12 UNK        -0.0967 
     18 CA         26.6273    0.2372   -5.2523 C.3       5 UNK         0.0660 
     19 N          25.2709    0.4959   -4.7516 N.am      5 UNK        -0.4015 
     20 C          24.5270   -0.4046   -4.1043 C.2       4 UNK         0.4946 
     21 O          24.8950   -1.5586   -3.8585 O.2       4 UNK        -0.5353 
     22 CA         23.1403    0.0554   -3.6341 C.3       4 UNK         0.0277 
     23 CB         22.0643   -0.2147   -4.6986 C.3       4 UNK        -0.1981 
     24 N          22.8635   -0.7121   -2.4317 N.am      4 UNK        -0.4209 
     25 C          22.2610   -0.2834   -1.3173 C.2       3 UNK         0.4942 
     26 O          21.5920    0.7472   -1.2413 O.2       3 UNK        -0.5208 
     27 CA         22.5230   -1.1302   -0.0549 C.3       3 UNK         0.0250 
     28 CB         21.4561   -2.2241    0.1035 C.3       3 UNK        -0.1990 
     29 N          23.8637   -1.7323   -0.1064 N.am      3 UNK        -0.4232 
     30 C          24.9930   -1.0151    0.0149 C.2       2 UNK         0.4993 
     31 O          25.0217    0.1224    0.4857 O.2       2 UNK        -0.5286 
     32 CA         26.2881   -1.5945   -0.5773 C.3       2 UNK         0.0209 
     33 CB         27.4043   -1.7515    0.4768 C.3       2 UNK        -0.1931 
     34 N          26.0864   -2.7983   -1.3971 N.am      2 UNK        -0.4546 
     35 C          25.9784   -4.0769   -1.0061 C.2       1 UNK         0.5154 
     36 O          26.0242   -4.4532    0.1649 O.2       1 UNK        -0.5181 
     37 C          26.6312   -0.2521   -6.7156 C.2       5 UNK         0.5014 
     38 O          27.6668   -0.7387   -7.1703 O.2       5 UNK        -0.5248 
     39 N          25.4988   -0.1160   -7.4283 N.am      6 UNK        -0.4434 
     40 CA         25.3047   -0.4492   -8.8460 C.3       6 UNK         0.0363 
     41 CB         25.3267   -1.9815   -9.0537 C.3       6 UNK        -0.1936 
     42 C          26.2927    0.3319   -9.7362 C.2       6 UNK         0.5081 
     43 O          26.2902    1.5642   -9.6898 O.2       6 UNK        -0.5248 
     44 N          27.1428   -0.3708  -10.4966 N.am      7 UNK        -0.4718 
     45 CA         28.2469    0.1939  -11.2784 C.3       7 UNK         0.0273 
     46 CB         28.6531   -0.8151  -12.3691 C.3       7 UNK        -0.1935 
     47 C          29.4290    0.5857  -10.3680 C.2       7 UNK         0.5018 
     48 O          30.5123    0.0081  -10.4772 O.2       7 UNK        -0.5186 
     49 N          29.1880    1.5589   -9.4774 N.am      8 UNK        -0.4240 
     50 CA         30.0793    2.0138   -8.4024 C.3       8 UNK         0.0235 
     51 CB         29.4380    3.2200   -7.6978 C.3       8 UNK        -0.2000 
     52 C          31.5050    2.3712   -8.8530 C.2       8 UNK         0.4941 
     53 O          32.4570    2.1064   -8.1181 O.2       8 UNK        -0.5273 
     54 N          31.6236    2.9212  -10.0704 N.am      9 UNK        -0.4262 
     55 CA         32.8783    3.2809  -10.7351 C.3       9 UNK         0.0264 
     56 CB         32.5617    3.9361  -12.0887 C.3       9 UNK        -0.1955 
     57 C          33.8596    2.1095  -10.9240 C.2       9 UNK         0.5031 
     58 O          35.0657    2.3535  -10.9806 O.2       9 UNK        -0.5390 
     59 N          33.3544    0.8658  -10.9703 N.am      10 UNK        -0.4204 
     60 CA         34.1685   -0.3536  -11.0188 C.3       10 UNK         0.0237 
     61 CB         33.2601   -1.5661  -11.2782 C.3       10 UNK        -0.1985 
     62 C          35.0125   -0.5802   -9.7496 C.2       10 UNK         0.4970 
     63 O          36.0262   -1.2755   -9.8269 O.2       10 UNK        -0.4914 
     64 N          34.5935    0.0127   -8.6246 N.am      11 UNK        -0.4285 
     65 CA         35.3038   -0.0035   -7.3389 C.3       11 UNK         0.1007 
     66 C          36.0958    1.3099   -7.0711 C.2       11 UNK         0.5703 
     67 N          36.2072    2.2345   -8.0197 N.am      11 UNK        -0.7361 
     68 O          36.6455    1.4880   -5.9867 O.2       11 UNK        -0.4986 
     69 C69        34.3454   -0.3628   -6.1720 C.3       12 UNK        -0.0947 
     70 S70        33.5943   -2.0113   -6.3976 S.3       12 UNK        -0.2240 
     71 C71        31.8687   -1.5833   -6.7802 C.3       12 UNK         0.0194 
     72 H72        21.9307   -4.8574   -4.3405 H         1 UNK         0.0906 
     73 H73        21.8437   -3.2729   -3.5697 H         1 UNK         0.0906 
     74 H74        23.1025   -3.6035   -4.7621 H         1 UNK         0.0906 
     75 H75        25.0887   -4.3845   -3.9929 H         1 UNK         0.3140 
     76 H76        25.3425   -6.0016   -1.6355 H         1 UNK         0.1085 
     77 H77        26.8811   -6.4389   -3.4031 H         1 UNK         0.0836 
     78 H78        27.8201   -5.8078   -2.0892 H         1 UNK         0.0836 
     79 H79        29.9290   -4.4630   -3.0158 H         1 UNK         0.0731 
     80 H80        28.8913   -3.4604   -2.0285 H         1 UNK         0.0731 
     81 H81        30.7167   -3.5407   -5.2934 H         1 UNK         0.1312 
     82 H82        31.1831    0.7167   -5.4665 H         1 UNK         0.1406 
     83 H83        28.9018   -1.0637   -2.3000 H         1 UNK         0.1631 
     84 H84        30.2598    2.1265   -3.7995 H         1 UNK         0.0717 
     85 H85        30.0449    1.4085   -2.2224 H         1 UNK         0.0717 
     86 H86        27.0529    2.3733   -5.4804 H         1 UNK         0.0934 
     87 H87        28.4662    1.3675   -5.6326 H         1 UNK         0.0934 
     88 H88        27.0720   -0.5789   -4.6775 H         1 UNK         0.0739 
     89 H89        24.9140    1.4320   -4.8802 H         1 UNK         0.3093 
     90 H90        23.1725    1.1202   -3.3930 H         1 UNK         0.0818 
     91 H91        22.2324    0.3944   -5.5872 H         1 UNK         0.0819 
     92 H92        22.0572   -1.2576   -5.0155 H         1 UNK         0.0819 
     93 H93        21.0695    0.0273   -4.3243 H         1 UNK         0.0819 
     94 H94        23.4238   -1.5530   -2.3811 H         1 UNK         0.3041 
     95 H95        22.4692   -0.4709    0.8141 H         1 UNK         0.0784 
     96 H96        20.4676   -1.7824    0.2355 H         1 UNK         0.0793 
     97 H97        21.4044   -2.8734   -0.7702 H         1 UNK         0.0793 
     98 H98        21.6517   -2.8482    0.9756 H         1 UNK         0.0793 
     99 H99        23.9296   -2.6817   -0.4475 H         1 UNK         0.3024 
    100 H100       26.6306   -0.8375   -1.2855 H         1 UNK         0.1171 
    101 H101       27.1042   -2.4025    1.2980 H         1 UNK         0.0786 
    102 H102       28.3164   -2.1564    0.0396 H         1 UNK         0.0786 
    103 H103       27.6579   -0.7855    0.9151 H         1 UNK         0.0786 
    104 H104       25.9674   -2.6166   -2.3906 H         1 UNK         0.2977 
    105 H105       24.7090    0.3185   -6.9751 H         1 UNK         0.3127 
    106 H106       24.3093   -0.0943   -9.1171 H         1 UNK         0.0770 
    107 H107       25.1051   -2.2436  -10.0891 H         1 UNK         0.0814 
    108 H108       24.5713   -2.4675   -8.4361 H         1 UNK         0.0814 
    109 H109       26.2903   -2.4221   -8.7954 H         1 UNK         0.0814 
    110 H110       27.1096   -1.3780  -10.4332 H         1 UNK         0.2983 
    111 H111       27.9018    1.1029  -11.7763 H         1 UNK         0.0947 
    112 H112       29.4603   -0.4183  -12.9863 H         1 UNK         0.0806 
    113 H113       27.8188   -1.0387  -13.0342 H         1 UNK         0.0806 
    114 H114       29.0034   -1.7553  -11.9409 H         1 UNK         0.0806 
    115 H115       28.2389    1.9200   -9.4597 H         1 UNK         0.3000 
    116 H116       30.1520    1.1907   -7.6895 H         1 UNK         0.0850 
    117 H117       28.4112    3.0124   -7.4001 H         1 UNK         0.0810 
    118 H118       29.4185    4.0999   -8.3424 H         1 UNK         0.0810 
    119 H119       29.9937    3.4865   -6.7976 H         1 UNK         0.0810 
    120 H120       30.7748    3.0852  -10.5921 H         1 UNK         0.3040 
    121 H121       33.3776    4.0189  -10.1043 H         1 UNK         0.0766 
    122 H122       33.4771    4.2413  -12.5980 H         1 UNK         0.0812 
    123 H123       31.9500    4.8300  -11.9653 H         1 UNK         0.0812 
    124 H124       32.0315    3.2534  -12.7537 H         1 UNK         0.0812 
    125 H125       32.3503    0.7339  -10.8787 H         1 UNK         0.3205 
    126 H126       34.8596   -0.2578  -11.8587 H         1 UNK         0.0754 
    127 H127       33.8496   -2.4751  -11.4044 H         1 UNK         0.0769 
    128 H128       32.6672   -1.4347  -12.1836 H         1 UNK         0.0769 
    129 H129       32.5723   -1.7377  -10.4491 H         1 UNK         0.0769 
    130 H130       33.7712    0.6057   -8.6500 H         1 UNK         0.2981 
    131 H131       36.0686   -0.7814   -7.3663 H         1 UNK         0.0541 
    132 H132       35.7904    2.1017   -8.9314 H         1 UNK         0.3459 
    133 H133       36.7319    3.0722   -7.8259 H         1 UNK         0.3459 
    134 H134       34.8838   -0.3822   -5.2231 H         1 UNK         0.0612 
    135 H135       33.5683    0.3954   -6.0654 H         1 UNK         0.0612 
    136 H136       31.4398   -2.3761   -7.3945 H         1 UNK         0.0624 
    137 H137       31.8308   -0.6787   -7.3891 H         1 UNK         0.0624 
@<TRIPOS>BOND
     1    1    2 1    
     2    1   72 1    
     3    1   73 1    
     4    1   74 1    
     5    2    3 2    
     6    2    4 am   BACKBONE|DICT|INTERRES
     7    4    5 1    
     8    4   75 1    
     9    5    6 1    
    10    5   35 1    
    11    5   76 1    
    12    6    7 1    
    13    6   77 1    
    14    6   78 1    
    15    7    8 1    
    16    8    9 1    
    17    8   79 1    
    18    8   80 1    
    19    9   10 ar   
    20    9   14 ar   
    21   10   11 ar   
    22   10   81 1    
    23   11   12 ar   
    24   11   71 1    
    25   12   13 ar   
    26   12   82 1    
    27   13   14 ar   
    28   13   15 1    
    29   14   83 1    
    30   15   16 1    
    31   15   84 1    
    32   15   85 1    
    33   16   17 1    
    34   17   18 1    
    35   17   86 1    
    36   17   87 1    
    37   18   19 1    
    38   18   37 1    
    39   18   88 1    
    40   19   20 am   BACKBONE|DICT|INTERRES
    41   19   89 1    
    42   20   21 2    
    43   20   22 1    
    44   22   23 1    
    45   22   24 1    
    46   22   90 1    
    47   23   91 1    
    48   23   92 1    
    49   23   93 1    
    50   24   25 am   BACKBONE|DICT|INTERRES
    51   24   94 1    
    52   25   26 2    
    53   25   27 1    
    54   27   28 1    
    55   27   29 1    
    56   27   95 1    
    57   28   96 1    
    58   28   97 1    
    59   28   98 1    
    60   29   30 am   BACKBONE|DICT|INTERRES
    61   29   99 1    
    62   30   31 2    
    63   30   32 1    
    64   32   33 1    
    65   32   34 1    
    66   32  100 1    
    67   33  101 1    
    68   33  102 1    
    69   33  103 1    
    70   34   35 am   BACKBONE|DICT|INTERRES
    71   34  104 1    
    72   35   36 2    
    73   37   38 2    
    74   37   39 am   BACKBONE|DICT|INTERRES
    75   39   40 1    
    76   39  105 1    
    77   40   41 1    
    78   40   42 1    
    79   40  106 1    
    80   41  107 1    
    81   41  108 1    
    82   41  109 1    
    83   42   43 2    
    84   42   44 am   BACKBONE|DICT|INTERRES
    85   44   45 1    
    86   44  110 1    
    87   45   46 1    
    88   45   47 1    
    89   45  111 1    
    90   46  112 1    
    91   46  113 1    
    92   46  114 1    
    93   47   48 2    
    94   47   49 am   BACKBONE|DICT|INTERRES
    95   49   50 1    
    96   49  115 1    
    97   50   51 1    
    98   50   52 1    
    99   50  116 1    
   100   51  117 1    
   101   51  118 1    
   102   51  119 1    
   103   52   53 2    
   104   52   54 am   BACKBONE|DICT|INTERRES
   105   54   55 1    
   106   54  120 1    
   107   55   56 1    
   108   55   57 1    
   109   55  121 1    
   110   56  122 1    
   111   56  123 1    
   112   56  124 1    
   113   57   58 2    
   114   57   59 am   BACKBONE|DICT|INTERRES
   115   59   60 1    
   116   59  125 1    
   117   60   61 1    
   118   60   62 1    
   119   60  126 1    
   120   61  127 1    
   121   61  128 1    
   122   61  129 1    
   123   62   63 2    
   124   62   64 am   BACKBONE|DICT|INTERRES
   125   64   65 1    
   126   64  130 1    
   127   65   66 1    
   128   65   69 1    
   129   65  131 1    
   130   66   67 am   BACKBONE|DICT|INTERRES
   131   66   68 2    
   132   67  132 1    
   133   67  133 1    
   134   69   70 1    
   135   69  134 1    
   136   69  135 1    
   137   70   71 1    
   138   71  136 1    
   139   71  137 1    
@<TRIPOS>SUBSTRUCTURE
     1 UNK         1 GROUP             0       ****    0 ROOT    
