@<TRIPOS>MOLECULE
3R137
137   139    1
SMALL
USER_CHARGES


@<TRIPOS>ATOM
      1 CA         28.5676   -4.8910   -7.7824 C.3       0 UNK        -0.2020 
      2 C          27.9101   -5.3968   -6.5077 C.2       0 UNK         0.4855 
      3 O          27.8805   -6.6054   -6.2754 O.2       0 UNK        -0.5197 
      4 N          27.3894   -4.4804   -5.6855 N.am      1 UNK        -0.4892 
      5 CA         26.7031   -4.7642   -4.4254 C.3       1 UNK         0.0835 
      6 C6         27.5078   -4.2543   -3.2086 C.3       12 UNK        -0.0855 
      7 S7         28.9677   -5.2709   -2.8029 S.3       12 UNK        -0.2931 
      8 C8         30.3381   -4.3392   -3.5759 C.3       12 UNK         0.0378 
      9 C9         30.6815   -2.9732   -2.9714 C.ar      12 UNK        -0.0802 
     10 C10        31.8116   -2.3092   -3.4584 C.ar      12 UNK        -0.0944 
     11 C11        32.1590   -1.0389   -2.9907 C.ar      12 UNK        -0.0787 
     12 C12        31.3417   -0.4050   -2.0506 C.ar      12 UNK        -0.0862 
     13 C13        30.2042   -1.0509   -1.5548 C.ar      12 UNK        -0.0733 
     14 C14        29.9085   -2.3464   -1.9843 C.ar      12 UNK        -0.0832 
     15 C15        29.2722   -0.3469   -0.5748 C.3       12 UNK         0.0240 
     16 S16        27.6040   -0.0725   -1.2768 S.3       12 UNK        -0.2522 
     17 C17        27.9861    0.8820   -2.7831 C.3       12 UNK        -0.0967 
     18 CA         27.7219    0.0446   -4.0721 C.3       5 UNK         0.0660 
     19 N          26.2995   -0.0097   -4.4442 N.am      5 UNK        -0.4015 
     20 C          25.5897    1.0058   -4.9653 C.2       4 UNK         0.4946 
     21 O          26.0384    2.1394   -5.1491 O.2       4 UNK        -0.5353 
     22 CA         24.1406    0.7113   -5.3772 C.3       4 UNK         0.0277 
     23 CB         24.0929   -0.0142   -6.7322 C.3       4 UNK        -0.1981 
     24 N          23.4055   -0.0727   -4.3877 N.am      4 UNK        -0.4209 
     25 C          22.9987    0.3705   -3.1884 C.2       3 UNK         0.4942 
     26 O          23.2375    1.5005   -2.7612 O.2       3 UNK        -0.5208 
     27 CA         22.1440   -0.5882   -2.3332 C.3       3 UNK         0.0250 
     28 CB         20.7024   -0.0644   -2.2118 C.3       3 UNK        -0.1990 
     29 N          22.1085   -1.9472   -2.8826 N.am      3 UNK        -0.4232 
     30 C          23.0696   -2.8588   -2.6918 C.2       2 UNK         0.4993 
     31 O          23.9955   -2.7093   -1.8910 O.2       2 UNK        -0.5286 
     32 CA         23.0019   -4.1410   -3.5494 C.3       2 UNK         0.0209 
     33 CB         22.2053   -3.9762   -4.8658 C.3       2 UNK        -0.1931 
     34 N          24.3415   -4.6744   -3.8280 N.am      2 UNK        -0.4546 
     35 C          25.3480   -4.0436   -4.4525 C.2       1 UNK         0.5154 
     36 O          25.2657   -2.9213   -4.9661 O.2       1 UNK        -0.5181 
     37 C          28.5606    0.4722   -5.2960 C.2       5 UNK         0.5014 
     38 O          28.5534   -0.2448   -6.2996 O.2       5 UNK        -0.5248 
     39 N          29.2131    1.6415   -5.2287 N.am      6 UNK        -0.4434 
     40 CA         30.0341    2.2260   -6.2900 C.3       6 UNK         0.0363 
     41 CB         30.6714    3.5276   -5.7822 C.3       6 UNK        -0.1936 
     42 C          29.2917    2.4723   -7.6112 C.2       6 UNK         0.5081 
     43 O          29.9258    2.4047   -8.6625 O.2       6 UNK        -0.5248 
     44 N          27.9700    2.6949   -7.5594 N.am      7 UNK        -0.4718 
     45 CA         27.1283    2.8445   -8.7515 C.3       7 UNK         0.0273 
     46 CB         25.7570    3.4110   -8.3499 C.3       7 UNK        -0.1935 
     47 C          26.9811    1.5467   -9.5718 C.2       7 UNK         0.5018 
     48 O          26.6355    1.6288  -10.7510 O.2       7 UNK        -0.5186 
     49 N          27.2580    0.3896   -8.9530 N.am      8 UNK        -0.4240 
     50 CA         27.3147   -0.9153   -9.6117 C.3       8 UNK         0.0235 
     51 CB         26.4599   -1.9242   -8.8255 C.3       8 UNK        -0.2000 
     52 C          28.7632   -1.4122   -9.7375 C.2       8 UNK         0.4941 
     53 O          29.1362   -1.9157  -10.7971 O.2       8 UNK        -0.5273 
     54 N          29.5476   -1.2868   -8.6573 N.am      9 UNK        -0.4262 
     55 CA         30.9015   -1.8347   -8.5435 C.3       9 UNK         0.0264 
     56 CB         31.2477   -1.9945   -7.0533 C.3       9 UNK        -0.1955 
     57 C          31.9879   -1.0149   -9.2608 C.2       9 UNK         0.5031 
     58 O          33.0547   -1.5680   -9.5301 O.2       9 UNK        -0.5390 
     59 N          31.7283    0.2755   -9.5279 N.am      10 UNK        -0.4204 
     60 CA         32.6395    1.2579  -10.1383 C.3       10 UNK         0.0237 
     61 CB         33.0105    0.8549  -11.5823 C.3       10 UNK        -0.1985 
     62 C          33.8770    1.5992   -9.2788 C.2       10 UNK         0.4970 
     63 O          34.8481    2.1452   -9.8062 O.2       10 UNK        -0.4914 
     64 N          33.8236    1.2891   -7.9774 N.am      11 UNK        -0.4285 
     65 CA         34.8430    1.6256   -6.9749 C.3       11 UNK         0.1007 
     66 C          34.8799    3.1375   -6.6080 C.2       11 UNK         0.5703 
     67 N          35.9173    3.5772   -5.9048 N.am      11 UNK        -0.7361 
     68 O          33.9852    3.9146   -6.9417 O.2       11 UNK        -0.4986 
     69 C69        34.7367    0.7015   -5.7301 C.3       12 UNK        -0.0947 
     70 S70        33.0832    0.6614   -4.9599 S.3       12 UNK        -0.2240 
     71 C71        33.4230   -0.3647   -3.5015 C.3       12 UNK         0.0194 
     72 H72        29.5875   -5.2678   -7.8549 H         1 UNK         0.0906 
     73 H73        28.0130   -5.2335   -8.6555 H         1 UNK         0.0906 
     74 H74        28.6093   -3.8042   -7.8091 H         1 UNK         0.0906 
     75 H75        27.3611   -3.5072   -5.9580 H         1 UNK         0.3140 
     76 H76        26.5208   -5.8360   -4.3178 H         1 UNK         0.1085 
     77 H77        26.8867   -4.2427   -2.3096 H         1 UNK         0.0836 
     78 H78        27.7995   -3.2194   -3.3799 H         1 UNK         0.0836 
     79 H79        31.2276   -4.9694   -3.5327 H         1 UNK         0.0731 
     80 H80        30.1113   -4.2062   -4.6340 H         1 UNK         0.0731 
     81 H81        32.4282   -2.7844   -4.2094 H         1 UNK         0.1312 
     82 H82        31.5915    0.5908   -1.7105 H         1 UNK         0.1406 
     83 H83        29.0432   -2.8336   -1.5618 H         1 UNK         0.1631 
     84 H84        29.6883    0.6126   -0.2634 H         1 UNK         0.0717 
     85 H85        29.1810   -0.9497    0.3297 H         1 UNK         0.0717 
     86 H86        27.3944    1.7990   -2.7775 H         1 UNK         0.0934 
     87 H87        29.0262    1.2000   -2.7059 H         1 UNK         0.0934 
     88 H88        28.0310   -0.9824   -3.8798 H         1 UNK         0.0739 
     89 H89        25.8618   -0.9229   -4.3939 H         1 UNK         0.3093 
     90 H90        23.6322    1.6716   -5.4898 H         1 UNK         0.0818 
     91 H91        23.0700   -0.1010   -7.0987 H         1 UNK         0.0819 
     92 H92        24.6618    0.5204   -7.4922 H         1 UNK         0.0819 
     93 H93        24.5091   -1.0193   -6.6663 H         1 UNK         0.0819 
     94 H94        23.1952   -1.0271   -4.6383 H         1 UNK         0.3041 
     95 H95        22.5824   -0.6132   -1.3330 H         1 UNK         0.0784 
     96 H96        20.6847    0.9320   -1.7676 H         1 UNK         0.0793 
     97 H97        20.2128    0.0042   -3.1841 H         1 UNK         0.0793 
     98 H98        20.0977   -0.7105   -1.5751 H         1 UNK         0.0793 
     99 H99        21.3622   -2.1554   -3.5311 H         1 UNK         0.3024 
    100 H100       22.4906   -4.8862   -2.9376 H         1 UNK         0.1171 
    101 H101       22.2342   -4.8928   -5.4554 H         1 UNK         0.0786 
    102 H102       22.6021   -3.1748   -5.4901 H         1 UNK         0.0786 
    103 H103       21.1530   -3.7628   -4.6754 H         1 UNK         0.0786 
    104 H104       24.5376   -5.5703   -3.4029 H         1 UNK         0.2977 
    105 H105       29.1143    2.1945   -4.3906 H         1 UNK         0.3127 
    106 H106       30.8310    1.5162   -6.5123 H         1 UNK         0.0770 
    107 H107       29.9183    4.2595   -5.4880 H         1 UNK         0.0814 
    108 H108       31.2865    3.9877   -6.5570 H         1 UNK         0.0814 
    109 H109       31.3208    3.3450   -4.9258 H         1 UNK         0.0814 
    110 H110       27.5007    2.6962   -6.6594 H         1 UNK         0.2983 
    111 H111       27.6091    3.5741   -9.4072 H         1 UNK         0.0947 
    112 H112       25.1178    3.5455   -9.2236 H         1 UNK         0.0806 
    113 H113       25.8577    4.3852   -7.8714 H         1 UNK         0.0806 
    114 H114       25.2298    2.7556   -7.6589 H         1 UNK         0.0806 
    115 H115       27.5584    0.4218   -7.9853 H         1 UNK         0.3000 
    116 H116       26.9063   -0.8517  -10.6227 H         1 UNK         0.0850 
    117 H117       26.5522   -2.9277   -9.2430 H         1 UNK         0.0810 
    118 H118       25.4043   -1.6576   -8.8707 H         1 UNK         0.0810 
    119 H119       26.7477   -1.9744   -7.7747 H         1 UNK         0.0810 
    120 H120       29.1576   -0.8830   -7.8054 H         1 UNK         0.3040 
    121 H121       30.9048   -2.8293   -8.9951 H         1 UNK         0.0766 
    122 H122       32.2478   -2.4097   -6.9214 H         1 UNK         0.0812 
    123 H123       30.5501   -2.6656   -6.5533 H         1 UNK         0.0812 
    124 H124       31.2190   -1.0403   -6.5281 H         1 UNK         0.0812 
    125 H125       30.8312    0.6594   -9.2475 H         1 UNK         0.3205 
    126 H126       32.0715    2.1865  -10.2041 H         1 UNK         0.0754 
    127 H127       33.5379    1.6625  -12.0914 H         1 UNK         0.0769 
    128 H128       32.1212    0.6303  -12.1712 H         1 UNK         0.0769 
    129 H129       33.6597   -0.0206  -11.6069 H         1 UNK         0.0769 
    130 H130       32.9843    0.8652   -7.6156 H         1 UNK         0.2981 
    131 H131       35.8094    1.4173   -7.4380 H         1 UNK         0.0541 
    132 H132       36.6597    2.9561   -5.6186 H         1 UNK         0.3459 
    133 H133       35.9575    4.5527   -5.6546 H         1 UNK         0.3459 
    134 H134       35.4741    0.9759   -4.9738 H         1 UNK         0.0612 
    135 H135       34.9846   -0.3195   -6.0247 H         1 UNK         0.0612 
    136 H136       34.1662   -1.1236   -3.7523 H         1 UNK         0.0624 
    137 H137       33.8674    0.2551   -2.7213 H         1 UNK         0.0624 
@<TRIPOS>BOND
     1    1    2 1    
     2    1   72 1    
     3    1   73 1    
     4    1   74 1    
     5    2    3 2    
     6    2    4 am   BACKBONE|DICT|INTERRES
     7    4    5 1    
     8    4   75 1    
     9    5    6 1    
    10    5   35 1    
    11    5   76 1    
    12    6    7 1    
    13    6   77 1    
    14    6   78 1    
    15    7    8 1    
    16    8    9 1    
    17    8   79 1    
    18    8   80 1    
    19    9   10 ar   
    20    9   14 ar   
    21   10   11 ar   
    22   10   81 1    
    23   11   12 ar   
    24   11   71 1    
    25   12   13 ar   
    26   12   82 1    
    27   13   14 ar   
    28   13   15 1    
    29   14   83 1    
    30   15   16 1    
    31   15   84 1    
    32   15   85 1    
    33   16   17 1    
    34   17   18 1    
    35   17   86 1    
    36   17   87 1    
    37   18   19 1    
    38   18   37 1    
    39   18   88 1    
    40   19   20 am   BACKBONE|DICT|INTERRES
    41   19   89 1    
    42   20   21 2    
    43   20   22 1    
    44   22   23 1    
    45   22   24 1    
    46   22   90 1    
    47   23   91 1    
    48   23   92 1    
    49   23   93 1    
    50   24   25 am   BACKBONE|DICT|INTERRES
    51   24   94 1    
    52   25   26 2    
    53   25   27 1    
    54   27   28 1    
    55   27   29 1    
    56   27   95 1    
    57   28   96 1    
    58   28   97 1    
    59   28   98 1    
    60   29   30 am   BACKBONE|DICT|INTERRES
    61   29   99 1    
    62   30   31 2    
    63   30   32 1    
    64   32   33 1    
    65   32   34 1    
    66   32  100 1    
    67   33  101 1    
    68   33  102 1    
    69   33  103 1    
    70   34   35 am   BACKBONE|DICT|INTERRES
    71   34  104 1    
    72   35   36 2    
    73   37   38 2    
    74   37   39 am   BACKBONE|DICT|INTERRES
    75   39   40 1    
    76   39  105 1    
    77   40   41 1    
    78   40   42 1    
    79   40  106 1    
    80   41  107 1    
    81   41  108 1    
    82   41  109 1    
    83   42   43 2    
    84   42   44 am   BACKBONE|DICT|INTERRES
    85   44   45 1    
    86   44  110 1    
    87   45   46 1    
    88   45   47 1    
    89   45  111 1    
    90   46  112 1    
    91   46  113 1    
    92   46  114 1    
    93   47   48 2    
    94   47   49 am   BACKBONE|DICT|INTERRES
    95   49   50 1    
    96   49  115 1    
    97   50   51 1    
    98   50   52 1    
    99   50  116 1    
   100   51  117 1    
   101   51  118 1    
   102   51  119 1    
   103   52   53 2    
   104   52   54 am   BACKBONE|DICT|INTERRES
   105   54   55 1    
   106   54  120 1    
   107   55   56 1    
   108   55   57 1    
   109   55  121 1    
   110   56  122 1    
   111   56  123 1    
   112   56  124 1    
   113   57   58 2    
   114   57   59 am   BACKBONE|DICT|INTERRES
   115   59   60 1    
   116   59  125 1    
   117   60   61 1    
   118   60   62 1    
   119   60  126 1    
   120   61  127 1    
   121   61  128 1    
   122   61  129 1    
   123   62   63 2    
   124   62   64 am   BACKBONE|DICT|INTERRES
   125   64   65 1    
   126   64  130 1    
   127   65   66 1    
   128   65   69 1    
   129   65  131 1    
   130   66   67 am   BACKBONE|DICT|INTERRES
   131   66   68 2    
   132   67  132 1    
   133   67  133 1    
   134   69   70 1    
   135   69  134 1    
   136   69  135 1    
   137   70   71 1    
   138   71  136 1    
   139   71  137 1    
@<TRIPOS>SUBSTRUCTURE
     1 UNK         1 GROUP             0       ****    0 ROOT    
