@<TRIPOS>MOLECULE
3R137
137   139    1
SMALL
USER_CHARGES


@<TRIPOS>ATOM
      1 CA         26.5256   -6.0909   -3.5281 C.3       0 UNK        -0.2020 
      2 C          26.4717   -5.4758   -2.1372 C.2       0 UNK         0.4855 
      3 O          26.6792   -6.1785   -1.1475 O.2       0 UNK        -0.5197 
      4 N          26.1922   -4.1738   -2.0563 N.am      1 UNK        -0.4892 
      5 CA         26.0651   -3.4019   -0.8166 C.3       1 UNK         0.0835 
      6 C6         27.4270   -2.8510   -0.3012 C.3       12 UNK        -0.0855 
      7 S7         28.4447   -2.0495   -1.5936 S.3       12 UNK        -0.2931 
      8 C8         29.8490   -3.2082   -1.6805 C.3       12 UNK         0.0378 
      9 C9         30.5016   -3.2271   -3.0549 C.ar      12 UNK        -0.0802 
     10 C10        31.5154   -2.3202   -3.3774 C.ar      12 UNK        -0.0944 
     11 C11        32.1536   -2.3772   -4.6217 C.ar      12 UNK        -0.0787 
     12 C12        31.7723   -3.3624   -5.5421 C.ar      12 UNK        -0.0862 
     13 C13        30.7551   -4.2710   -5.2337 C.ar      12 UNK        -0.0733 
     14 C14        30.1234   -4.1944   -3.9891 C.ar      12 UNK        -0.0832 
     15 C15        30.3713   -5.3685   -6.2200 C.3       12 UNK         0.0240 
     16 S16        29.3727   -4.7616   -7.6187 S.3       12 UNK        -0.2522 
     17 C17        27.8395   -4.2113   -6.7913 C.3       12 UNK        -0.0967 
     18 CA         27.2449   -2.9124   -7.4009 C.3       5 UNK         0.0660 
     19 N          25.9135   -2.5592   -6.8948 N.am      5 UNK        -0.4015 
     20 C          25.5643   -2.3610   -5.6179 C.2       4 UNK         0.4946 
     21 O          26.2820   -2.6290   -4.6502 O.2       4 UNK        -0.5353 
     22 CA         24.2025   -1.6943   -5.3832 C.3       4 UNK         0.0277 
     23 CB         23.1365   -2.7339   -5.0025 C.3       4 UNK        -0.1981 
     24 N          24.3294   -0.6762   -4.3360 N.am      4 UNK        -0.4209 
     25 C          24.9936    0.4788   -4.5061 C.2       3 UNK         0.4942 
     26 O          25.4807    0.8127   -5.5878 O.2       3 UNK        -0.5208 
     27 CA         25.2131    1.4114   -3.2983 C.3       3 UNK         0.0250 
     28 CB         24.4684    2.7510   -3.4739 C.3       3 UNK        -0.1990 
     29 N          24.9627    0.7994   -1.9868 N.am      3 UNK        -0.4232 
     30 C          23.7910    0.5082   -1.4034 C.2       2 UNK         0.4993 
     31 O          22.6893    0.7698   -1.8885 O.2       2 UNK        -0.5286 
     32 CA         23.8904   -0.2622   -0.0688 C.3       2 UNK         0.0209 
     33 CB         22.5270   -0.8096    0.4064 C.3       2 UNK        -0.1931 
     34 N          24.8911   -1.3446   -0.1001 N.am      2 UNK        -0.4546 
     35 C          24.9543   -2.3465   -0.9932 C.2       1 UNK         0.5154 
     36 O          24.1533   -2.4628   -1.9225 O.2       1 UNK        -0.5181 
     37 C          28.2025   -1.7037   -7.3308 C.2       5 UNK         0.5014 
     38 O          28.7234   -1.3036   -8.3712 O.2       5 UNK        -0.5248 
     39 N          28.3827   -1.1202   -6.1379 N.am      6 UNK        -0.4434 
     40 CA         29.3081   -0.0186   -5.8564 C.3       6 UNK         0.0363 
     41 CB         29.2067    0.3758   -4.3782 C.3       6 UNK        -0.1936 
     42 C          29.1422    1.2199   -6.7517 C.2       6 UNK         0.5081 
     43 O          30.1451    1.7550   -7.2275 O.2       6 UNK        -0.5248 
     44 N          27.8950    1.6545   -6.9789 N.am      7 UNK        -0.4718 
     45 CA         27.5847    2.7949   -7.8465 C.3       7 UNK         0.0273 
     46 CB         26.1740    3.3154   -7.5311 C.3       7 UNK        -0.1935 
     47 C          27.7124    2.4632   -9.3424 C.2       7 UNK         0.5018 
     48 O          28.0545    3.3493  -10.1251 O.2       7 UNK        -0.5186 
     49 N          27.4432    1.2036   -9.7135 N.am      8 UNK        -0.4240 
     50 CA         27.5306    0.7064  -11.0890 C.3       8 UNK         0.0235 
     51 CB         26.7215   -0.5945  -11.2244 C.3       8 UNK        -0.2000 
     52 C          28.9868    0.4978  -11.5306 C.2       8 UNK         0.4941 
     53 O          29.3513    0.8988  -12.6362 O.2       8 UNK        -0.5273 
     54 N          29.7956   -0.1013  -10.6471 N.am      9 UNK        -0.4262 
     55 CA         31.2334   -0.3105  -10.8284 C.3       9 UNK         0.0264 
     56 CB         31.6856   -1.4441   -9.8941 C.3       9 UNK        -0.1955 
     57 C          32.0707    0.9625  -10.5966 C.2       9 UNK         0.5031 
     58 O          33.2442    0.9746  -10.9712 O.2       9 UNK        -0.5390 
     59 N          31.4606    1.9972   -9.9969 N.am      10 UNK        -0.4204 
     60 CA         32.0351    3.2988   -9.6377 C.3       10 UNK         0.0237 
     61 CB         32.4399    4.0960  -10.8964 C.3       10 UNK        -0.1985 
     62 C          33.1683    3.1673   -8.6029 C.2       10 UNK         0.4970 
     63 O          34.2429    3.7457   -8.7783 O.2       10 UNK        -0.4914 
     64 N          32.8917    2.4015   -7.5439 N.am      11 UNK        -0.4285 
     65 CA         33.7976    2.1150   -6.4221 C.3       11 UNK         0.1007 
     66 C          33.1836    2.4397   -5.0307 C.2       11 UNK         0.5703 
     67 N          31.9441    2.9084   -4.9407 N.am      11 UNK        -0.7361 
     68 O          33.8568    2.2954   -4.0130 O.2       11 UNK        -0.4986 
     69 C69        34.3812    0.6782   -6.5102 C.3       12 UNK        -0.0947 
     70 S70        33.1047   -0.6240   -6.5757 S.3       12 UNK        -0.2240 
     71 C71        33.2811   -1.3987   -4.9382 C.3       12 UNK         0.0194 
     72 H72        25.7734   -6.8738   -3.6196 H         1 UNK         0.0906 
     73 H73        26.3381   -5.3515   -4.3059 H         1 UNK         0.0906 
     74 H74        27.5031   -6.5365   -3.7084 H         1 UNK         0.0906 
     75 H75        26.0324   -3.6283   -2.9014 H         1 UNK         0.3140 
     76 H76        25.6711   -4.0675   -0.0452 H         1 UNK         0.1085 
     77 H77        27.3022   -2.1531    0.5271 H         1 UNK         0.0836 
     78 H78        27.9878   -3.6792    0.1334 H         1 UNK         0.0836 
     79 H79        30.5822   -2.9390   -0.9188 H         1 UNK         0.0731 
     80 H80        29.5144   -4.2175   -1.4357 H         1 UNK         0.0731 
     81 H81        31.8124   -1.5756   -2.6515 H         1 UNK         0.1312 
     82 H82        32.2697   -3.4255   -6.5003 H         1 UNK         0.1406 
     83 H83        29.3465   -4.9017   -3.7362 H         1 UNK         0.1631 
     84 H84        29.8258   -6.1678   -5.7158 H         1 UNK         0.0717 
     85 H85        31.2794   -5.8266   -6.6145 H         1 UNK         0.0717 
     86 H86        27.1116   -5.0202   -6.8670 H         1 UNK         0.0934 
     87 H87        28.0294   -4.0814   -5.7279 H         1 UNK         0.0934 
     88 H88        27.0900   -3.1108   -8.4630 H         1 UNK         0.0739 
     89 H89        25.2460   -2.3047   -7.6093 H         1 UNK         0.3093 
     90 H90        23.8789   -1.1930   -6.2982 H         1 UNK         0.0818 
     91 H91        22.2030   -2.2584   -4.7015 H         1 UNK         0.0819 
     92 H92        22.9123   -3.3838   -5.8490 H         1 UNK         0.0819 
     93 H93        23.4647   -3.3777   -4.1866 H         1 UNK         0.0819 
     94 H94        24.0354   -0.9494   -3.4052 H         1 UNK         0.3041 
     95 H95        26.2772    1.6469   -3.2968 H         1 UNK         0.0784 
     96 H96        24.8074    3.2667   -4.3729 H         1 UNK         0.0793 
     97 H97        23.3919    2.6119   -3.5748 H         1 UNK         0.0793 
     98 H98        24.6458    3.4195   -2.6315 H         1 UNK         0.0793 
     99 H99        25.7954    0.4941   -1.5012 H         1 UNK         0.3024 
    100 H100       24.2302    0.4632    0.6727 H         1 UNK         0.1171 
    101 H101       22.1030   -1.5155   -0.3088 H         1 UNK         0.0786 
    102 H102       21.8039   -0.0031    0.5350 H         1 UNK         0.0786 
    103 H103       22.6162   -1.3182    1.3663 H         1 UNK         0.0786 
    104 H104       25.5865   -1.3151    0.6328 H         1 UNK         0.2977 
    105 H105       27.8825   -1.5152   -5.3477 H         1 UNK         0.3127 
    106 H106       30.3109   -0.4066   -6.0317 H         1 UNK         0.0770 
    107 H107       29.8699    1.2078   -4.1425 H         1 UNK         0.0814 
    108 H108       29.4942   -0.4514   -3.7343 H         1 UNK         0.0814 
    109 H109       28.1950    0.6732   -4.1093 H         1 UNK         0.0814 
    110 H110       27.1096    1.1949   -6.5221 H         1 UNK         0.2983 
    111 H111       28.2944    3.5963   -7.6281 H         1 UNK         0.0947 
    112 H112       25.9332    4.1872   -8.1409 H         1 UNK         0.0806 
    113 H113       26.0889    3.6166   -6.4873 H         1 UNK         0.0806 
    114 H114       25.4115    2.5600   -7.7249 H         1 UNK         0.0806 
    115 H115       27.2328    0.5292   -8.9917 H         1 UNK         0.3000 
    116 H116       27.0848    1.4512  -11.7523 H         1 UNK         0.0850 
    117 H117       25.6741   -0.4386  -10.9659 H         1 UNK         0.0810 
    118 H118       27.1112   -1.3869  -10.5848 H         1 UNK         0.0810 
    119 H119       26.7494   -0.9632  -12.2507 H         1 UNK         0.0810 
    120 H120       29.3950   -0.4530   -9.7760 H         1 UNK         0.3040 
    121 H121       31.4110   -0.6284  -11.8579 H         1 UNK         0.0766 
    122 H122       32.7627   -1.6051   -9.9544 H         1 UNK         0.0812 
    123 H123       31.1996   -2.3856  -10.1505 H         1 UNK         0.0812 
    124 H124       31.4430   -1.2225   -8.8551 H         1 UNK         0.0812 
    125 H125       30.5107    1.8466   -9.6858 H         1 UNK         0.3205 
    126 H126       31.2362    3.8540   -9.1434 H         1 UNK         0.0754 
    127 H127       32.7530    5.1070  -10.6331 H         1 UNK         0.0769 
    128 H128       31.6053    4.1862  -11.5918 H         1 UNK         0.0769 
    129 H129       33.2695    3.6274  -11.4266 H         1 UNK         0.0769 
    130 H130       31.9646    1.9869   -7.4734 H         1 UNK         0.2981 
    131 H131       34.6467    2.7970   -6.4876 H         1 UNK         0.0541 
    132 H132       31.5733    3.1385   -4.0331 H         1 UNK         0.3459 
    133 H133       31.3684    3.0031   -5.7638 H         1 UNK         0.3459 
    134 H134       35.0711    0.4847   -5.6869 H         1 UNK         0.0612 
    135 H135       34.9797    0.5909   -7.4180 H         1 UNK         0.0612 
    136 H136       34.2346   -1.9261   -4.8931 H         1 UNK         0.0624 
    137 H137       33.3205   -0.6110   -4.1844 H         1 UNK         0.0624 
@<TRIPOS>BOND
     1    1    2 1    
     2    1   72 1    
     3    1   73 1    
     4    1   74 1    
     5    2    3 2    
     6    2    4 am   BACKBONE|DICT|INTERRES
     7    4    5 1    
     8    4   75 1    
     9    5    6 1    
    10    5   35 1    
    11    5   76 1    
    12    6    7 1    
    13    6   77 1    
    14    6   78 1    
    15    7    8 1    
    16    8    9 1    
    17    8   79 1    
    18    8   80 1    
    19    9   10 ar   
    20    9   14 ar   
    21   10   11 ar   
    22   10   81 1    
    23   11   12 ar   
    24   11   71 1    
    25   12   13 ar   
    26   12   82 1    
    27   13   14 ar   
    28   13   15 1    
    29   14   83 1    
    30   15   16 1    
    31   15   84 1    
    32   15   85 1    
    33   16   17 1    
    34   17   18 1    
    35   17   86 1    
    36   17   87 1    
    37   18   19 1    
    38   18   37 1    
    39   18   88 1    
    40   19   20 am   BACKBONE|DICT|INTERRES
    41   19   89 1    
    42   20   21 2    
    43   20   22 1    
    44   22   23 1    
    45   22   24 1    
    46   22   90 1    
    47   23   91 1    
    48   23   92 1    
    49   23   93 1    
    50   24   25 am   BACKBONE|DICT|INTERRES
    51   24   94 1    
    52   25   26 2    
    53   25   27 1    
    54   27   28 1    
    55   27   29 1    
    56   27   95 1    
    57   28   96 1    
    58   28   97 1    
    59   28   98 1    
    60   29   30 am   BACKBONE|DICT|INTERRES
    61   29   99 1    
    62   30   31 2    
    63   30   32 1    
    64   32   33 1    
    65   32   34 1    
    66   32  100 1    
    67   33  101 1    
    68   33  102 1    
    69   33  103 1    
    70   34   35 am   BACKBONE|DICT|INTERRES
    71   34  104 1    
    72   35   36 2    
    73   37   38 2    
    74   37   39 am   BACKBONE|DICT|INTERRES
    75   39   40 1    
    76   39  105 1    
    77   40   41 1    
    78   40   42 1    
    79   40  106 1    
    80   41  107 1    
    81   41  108 1    
    82   41  109 1    
    83   42   43 2    
    84   42   44 am   BACKBONE|DICT|INTERRES
    85   44   45 1    
    86   44  110 1    
    87   45   46 1    
    88   45   47 1    
    89   45  111 1    
    90   46  112 1    
    91   46  113 1    
    92   46  114 1    
    93   47   48 2    
    94   47   49 am   BACKBONE|DICT|INTERRES
    95   49   50 1    
    96   49  115 1    
    97   50   51 1    
    98   50   52 1    
    99   50  116 1    
   100   51  117 1    
   101   51  118 1    
   102   51  119 1    
   103   52   53 2    
   104   52   54 am   BACKBONE|DICT|INTERRES
   105   54   55 1    
   106   54  120 1    
   107   55   56 1    
   108   55   57 1    
   109   55  121 1    
   110   56  122 1    
   111   56  123 1    
   112   56  124 1    
   113   57   58 2    
   114   57   59 am   BACKBONE|DICT|INTERRES
   115   59   60 1    
   116   59  125 1    
   117   60   61 1    
   118   60   62 1    
   119   60  126 1    
   120   61  127 1    
   121   61  128 1    
   122   61  129 1    
   123   62   63 2    
   124   62   64 am   BACKBONE|DICT|INTERRES
   125   64   65 1    
   126   64  130 1    
   127   65   66 1    
   128   65   69 1    
   129   65  131 1    
   130   66   67 am   BACKBONE|DICT|INTERRES
   131   66   68 2    
   132   67  132 1    
   133   67  133 1    
   134   69   70 1    
   135   69  134 1    
   136   69  135 1    
   137   70   71 1    
   138   71  136 1    
   139   71  137 1    
@<TRIPOS>SUBSTRUCTURE
     1 UNK         1 GROUP             0       ****    0 ROOT    
