@<TRIPOS>MOLECULE
3R137
137   139    1
SMALL
USER_CHARGES


@<TRIPOS>ATOM
      1 CA         25.2147   -5.2207   -4.0475 C.3       0 UNK        -0.2020 
      2 C          25.4586   -4.2169   -2.9322 C.2       0 UNK         0.4855 
      3 O          24.5021   -3.7023   -2.3535 O.2       0 UNK        -0.5197 
      4 N          26.7314   -3.9485   -2.6157 N.am      1 UNK        -0.4892 
      5 CA         27.1524   -3.0449   -1.5383 C.3       1 UNK         0.0835 
      6 C6         28.6550   -3.1983   -1.1965 C.3       12 UNK        -0.0855 
      7 S7         29.0737   -4.9159   -0.7231 S.3       12 UNK        -0.2931 
      8 C8         30.8468   -5.0436   -1.1479 C.3       12 UNK         0.0378 
      9 C9         31.1523   -4.6404   -2.5859 C.ar      12 UNK        -0.0802 
     10 C10        32.1325   -3.6763   -2.8456 C.ar      12 UNK        -0.0944 
     11 C11        32.3798   -3.2452   -4.1521 C.ar      12 UNK        -0.0787 
     12 C12        31.6331   -3.7879   -5.2019 C.ar      12 UNK        -0.0862 
     13 C13        30.6468   -4.7474   -4.9564 C.ar      12 UNK        -0.0733 
     14 C14        30.4302   -5.1917   -3.6500 C.ar      12 UNK        -0.0832 
     15 C15        29.7706   -5.2489   -6.0965 C.3       12 UNK         0.0240 
     16 S16        28.0858   -4.5494   -6.0111 S.3       12 UNK        -0.2522 
     17 C17        28.4155   -2.7600   -5.8750 C.3       12 UNK        -0.0967 
     18 CA         27.5669   -1.9025   -6.8357 C.3       5 UNK         0.0660 
     19 N          26.1244   -1.9905   -6.5743 N.am      5 UNK        -0.4015 
     20 C          25.1922   -1.5288   -7.4208 C.2       4 UNK         0.4946 
     21 O          25.4565   -0.9882   -8.4935 O.2       4 UNK        -0.5353 
     22 CA         23.7181   -1.6510   -6.9997 C.3       4 UNK         0.0277 
     23 CB         23.1844   -3.0650   -7.2795 C.3       4 UNK        -0.1981 
     24 N          23.4442   -1.2794   -5.6078 N.am      4 UNK        -0.4209 
     25 C          23.7222   -0.0884   -5.0585 C.2       3 UNK         0.4942 
     26 O          24.3458    0.8014   -5.6365 O.2       3 UNK        -0.5208 
     27 CA         23.2521    0.1594   -3.6209 C.3       3 UNK         0.0250 
     28 CB         22.2095   -0.8523   -3.0976 C.3       3 UNK        -0.1990 
     29 N          24.4383    0.1495   -2.7794 N.am      3 UNK        -0.4232 
     30 C          24.6085    0.7785   -1.6154 C.2       2 UNK         0.4993 
     31 O          23.7369    1.4617   -1.0745 O.2       2 UNK        -0.5286 
     32 CA         25.9887    0.5957   -0.9435 C.3       2 UNK         0.0209 
     33 CB         26.0492    1.2195    0.4637 C.3       2 UNK        -0.1931 
     34 N          26.4076   -0.8101   -0.8562 N.am      2 UNK        -0.4546 
     35 C          26.8123   -1.5795   -1.8768 C.2       1 UNK         0.5154 
     36 O          26.9047   -1.1732   -3.0415 O.2       1 UNK        -0.5181 
     37 C          28.0671   -0.4464   -6.8056 C.2       5 UNK         0.5014 
     38 O          28.8777   -0.0660   -7.6552 O.2       5 UNK        -0.5248 
     39 N          27.5742    0.3387   -5.8368 N.am      6 UNK        -0.4434 
     40 CA         27.8706    1.7645   -5.6952 C.3       6 UNK         0.0363 
     41 CB         27.3292    2.2838   -4.3557 C.3       6 UNK        -0.1936 
     42 C          27.3458    2.6006   -6.8731 C.2       6 UNK         0.5081 
     43 O          28.0438    3.5043   -7.3317 O.2       6 UNK        -0.5248 
     44 N          26.1456    2.2624   -7.3621 N.am      7 UNK        -0.4718 
     45 CA         25.5523    2.8404   -8.5679 C.3       7 UNK         0.0273 
     46 CB         24.0742    2.4288   -8.6598 C.3       7 UNK        -0.1935 
     47 C          26.3109    2.4464   -9.8476 C.2       7 UNK         0.5018 
     48 O          26.4898    3.2943  -10.7228 O.2       7 UNK        -0.5186 
     49 N          26.7347    1.1770   -9.9365 N.am      8 UNK        -0.4240 
     50 CA         27.4599    0.6224  -11.0798 C.3       8 UNK         0.0235 
     51 CB         27.4888   -0.9124  -10.9936 C.3       8 UNK        -0.2000 
     52 C          28.8836    1.1775  -11.2366 C.2       8 UNK         0.4941 
     53 O          29.2522    1.5462  -12.3534 O.2       8 UNK        -0.5273 
     54 N          29.6646    1.2077  -10.1462 N.am      9 UNK        -0.4262 
     55 CA         31.0765    1.6070  -10.1898 C.3       9 UNK         0.0264 
     56 CB         31.9408    0.4548  -10.7416 C.3       9 UNK        -0.1955 
     57 C          31.6447    2.0910   -8.8493 C.2       9 UNK         0.5031 
     58 O          32.4798    2.9954   -8.8651 O.2       9 UNK        -0.5390 
     59 N          31.2363    1.4695   -7.7314 N.am      10 UNK        -0.4204 
     60 CA         31.7677    1.6716   -6.3720 C.3       10 UNK         0.0237 
     61 CB         31.5243    3.1187   -5.8831 C.3       10 UNK        -0.1985 
     62 C          33.2454    1.2496   -6.1989 C.2       10 UNK         0.4970 
     63 O          33.9039    1.7395   -5.2794 O.2       10 UNK        -0.4914 
     64 N          33.7331    0.3391   -7.0558 N.am      11 UNK        -0.4285 
     65 CA         35.1276   -0.1399   -7.1154 C.3       11 UNK         0.1007 
     66 C          36.1486    0.9963   -7.4445 C.2       11 UNK         0.5703 
     67 N          37.4167    0.8590   -7.0779 N.am      11 UNK        -0.7361 
     68 O          35.8158    1.9860   -8.0935 O.2       11 UNK        -0.4986 
     69 C69        35.5208   -1.0200   -5.8880 C.3       12 UNK        -0.0947 
     70 S70        34.5387   -2.5508   -5.7757 S.3       12 UNK        -0.2240 
     71 C71        33.3994   -2.1433   -4.4152 C.3       12 UNK         0.0194 
     72 H72        25.1013   -4.7079   -5.0006 H         1 UNK         0.0906 
     73 H73        26.0396   -5.9278   -4.1340 H         1 UNK         0.0906 
     74 H74        24.3061   -5.7907   -3.8549 H         1 UNK         0.0906 
     75 H75        27.4801   -4.3828   -3.1357 H         1 UNK         0.3140 
     76 H76        26.5785   -3.3221   -0.6508 H         1 UNK         0.1085 
     77 H77        29.2618   -2.8811   -2.0460 H         1 UNK         0.0836 
     78 H78        28.9307   -2.5455   -0.3659 H         1 UNK         0.0836 
     79 H79        31.4132   -4.4300   -0.4454 H         1 UNK         0.0731 
     80 H80        31.1747   -6.0721   -0.9920 H         1 UNK         0.0731 
     81 H81        32.6869   -3.2407   -2.0253 H         1 UNK         0.1312 
     82 H82        31.7974   -3.4347   -6.2108 H         1 UNK         0.1406 
     83 H83        29.6613   -5.9270   -3.4549 H         1 UNK         0.1631 
     84 H84        29.7081   -6.3373   -6.0595 H         1 UNK         0.0717 
     85 H85        30.2110   -4.9987   -7.0630 H         1 UNK         0.0717 
     86 H86        28.2693   -2.4598   -4.8368 H         1 UNK         0.0934 
     87 H87        29.4675   -2.5800   -6.0923 H         1 UNK         0.0934 
     88 H88        27.7380   -2.2749   -7.8481 H         1 UNK         0.0739 
     89 H89        25.8408   -2.4122   -5.7034 H         1 UNK         0.3093 
     90 H90        23.1546   -0.9556   -7.6256 H         1 UNK         0.0818 
     91 H91        22.1085   -3.1230   -7.1137 H         1 UNK         0.0819 
     92 H92        23.3643   -3.3507   -8.3170 H         1 UNK         0.0819 
     93 H93        23.6616   -3.8146   -6.6492 H         1 UNK         0.0819 
     94 H94        22.9392   -1.9521   -5.0488 H         1 UNK         0.3041 
     95 H95        22.8096    1.1576   -3.6017 H         1 UNK         0.0784 
     96 H96        21.3355   -0.8936   -3.7491 H         1 UNK         0.0793 
     97 H97        22.6179   -1.8598   -3.0141 H         1 UNK         0.0793 
     98 H98        21.8528   -0.5651   -2.1082 H         1 UNK         0.0793 
     99 H99        25.2333   -0.3763   -3.1353 H         1 UNK         0.3024 
    100 H100       26.7107    1.1263   -1.5659 H         1 UNK         0.1171 
    101 H101       25.8084    2.2831    0.4321 H         1 UNK         0.0786 
    102 H102       25.3429    0.7450    1.1461 H         1 UNK         0.0786 
    103 H103       27.0463    1.1306    0.8957 H         1 UNK         0.0786 
    104 H104       26.3320   -1.2309    0.0591 H         1 UNK         0.2977 
    105 H105       26.9376   -0.0636   -5.1624 H         1 UNK         0.3127 
    106 H106       28.9538    1.8675   -5.6758 H         1 UNK         0.0770 
    107 H107       26.2495    2.1565   -4.2747 H         1 UNK         0.0814 
    108 H108       27.5428    3.3467   -4.2352 H         1 UNK         0.0814 
    109 H109       27.7986    1.7638   -3.5216 H         1 UNK         0.0814 
    110 H110       25.6012    1.5561   -6.8720 H         1 UNK         0.2983 
    111 H111       25.5986    3.9279   -8.4774 H         1 UNK         0.0947 
    112 H112       23.5996    2.8698   -9.5373 H         1 UNK         0.0806 
    113 H113       23.5155    2.7623   -7.7851 H         1 UNK         0.0806 
    114 H114       23.9598    1.3469   -8.7347 H         1 UNK         0.0806 
    115 H115       26.4695    0.5226   -9.2053 H         1 UNK         0.3000 
    116 H116       26.9045    0.8919  -11.9808 H         1 UNK         0.0850 
    117 H117       28.0235   -1.3423  -11.8416 H         1 UNK         0.0810 
    118 H118       26.4813   -1.3284  -11.0035 H         1 UNK         0.0810 
    119 H119       27.9846   -1.2573  -10.0861 H         1 UNK         0.0810 
    120 H120       29.2835    0.8915   -9.2579 H         1 UNK         0.3040 
    121 H121       31.1674    2.4550  -10.8728 H         1 UNK         0.0766 
    122 H122       32.9993    0.7198  -10.7382 H         1 UNK         0.0812 
    123 H123       31.6766    0.2149  -11.7716 H         1 UNK         0.0812 
    124 H124       31.8269   -0.4531  -10.1484 H         1 UNK         0.0812 
    125 H125       30.5066    0.7626   -7.8030 H         1 UNK         0.3205 
    126 H126       31.1929    1.0036   -5.7291 H         1 UNK         0.0754 
    127 H127       31.6557    3.1923   -4.8030 H         1 UNK         0.0769 
    128 H128       30.5187    3.4669   -6.1133 H         1 UNK         0.0769 
    129 H129       32.2230    3.8202   -6.3404 H         1 UNK         0.0769 
    130 H130       33.1267    0.0024   -7.7872 H         1 UNK         0.2981 
    131 H131       35.1652   -0.7833   -7.9950 H         1 UNK         0.0541 
    132 H132       37.7275    0.0489   -6.5661 H         1 UNK         0.3459 
    133 H133       38.0744    1.5852   -7.3152 H         1 UNK         0.3459 
    134 H134       35.4472   -0.4545   -4.9580 H         1 UNK         0.0612 
    135 H135       36.5588   -1.3459   -5.9601 H         1 UNK         0.0612 
    136 H136       32.8619   -1.2260   -4.6541 H         1 UNK         0.0624 
    137 H137       33.9869   -1.9391   -3.5187 H         1 UNK         0.0624 
@<TRIPOS>BOND
     1    1    2 1    
     2    1   72 1    
     3    1   73 1    
     4    1   74 1    
     5    2    3 2    
     6    2    4 am   BACKBONE|DICT|INTERRES
     7    4    5 1    
     8    4   75 1    
     9    5    6 1    
    10    5   35 1    
    11    5   76 1    
    12    6    7 1    
    13    6   77 1    
    14    6   78 1    
    15    7    8 1    
    16    8    9 1    
    17    8   79 1    
    18    8   80 1    
    19    9   10 ar   
    20    9   14 ar   
    21   10   11 ar   
    22   10   81 1    
    23   11   12 ar   
    24   11   71 1    
    25   12   13 ar   
    26   12   82 1    
    27   13   14 ar   
    28   13   15 1    
    29   14   83 1    
    30   15   16 1    
    31   15   84 1    
    32   15   85 1    
    33   16   17 1    
    34   17   18 1    
    35   17   86 1    
    36   17   87 1    
    37   18   19 1    
    38   18   37 1    
    39   18   88 1    
    40   19   20 am   BACKBONE|DICT|INTERRES
    41   19   89 1    
    42   20   21 2    
    43   20   22 1    
    44   22   23 1    
    45   22   24 1    
    46   22   90 1    
    47   23   91 1    
    48   23   92 1    
    49   23   93 1    
    50   24   25 am   BACKBONE|DICT|INTERRES
    51   24   94 1    
    52   25   26 2    
    53   25   27 1    
    54   27   28 1    
    55   27   29 1    
    56   27   95 1    
    57   28   96 1    
    58   28   97 1    
    59   28   98 1    
    60   29   30 am   BACKBONE|DICT|INTERRES
    61   29   99 1    
    62   30   31 2    
    63   30   32 1    
    64   32   33 1    
    65   32   34 1    
    66   32  100 1    
    67   33  101 1    
    68   33  102 1    
    69   33  103 1    
    70   34   35 am   BACKBONE|DICT|INTERRES
    71   34  104 1    
    72   35   36 2    
    73   37   38 2    
    74   37   39 am   BACKBONE|DICT|INTERRES
    75   39   40 1    
    76   39  105 1    
    77   40   41 1    
    78   40   42 1    
    79   40  106 1    
    80   41  107 1    
    81   41  108 1    
    82   41  109 1    
    83   42   43 2    
    84   42   44 am   BACKBONE|DICT|INTERRES
    85   44   45 1    
    86   44  110 1    
    87   45   46 1    
    88   45   47 1    
    89   45  111 1    
    90   46  112 1    
    91   46  113 1    
    92   46  114 1    
    93   47   48 2    
    94   47   49 am   BACKBONE|DICT|INTERRES
    95   49   50 1    
    96   49  115 1    
    97   50   51 1    
    98   50   52 1    
    99   50  116 1    
   100   51  117 1    
   101   51  118 1    
   102   51  119 1    
   103   52   53 2    
   104   52   54 am   BACKBONE|DICT|INTERRES
   105   54   55 1    
   106   54  120 1    
   107   55   56 1    
   108   55   57 1    
   109   55  121 1    
   110   56  122 1    
   111   56  123 1    
   112   56  124 1    
   113   57   58 2    
   114   57   59 am   BACKBONE|DICT|INTERRES
   115   59   60 1    
   116   59  125 1    
   117   60   61 1    
   118   60   62 1    
   119   60  126 1    
   120   61  127 1    
   121   61  128 1    
   122   61  129 1    
   123   62   63 2    
   124   62   64 am   BACKBONE|DICT|INTERRES
   125   64   65 1    
   126   64  130 1    
   127   65   66 1    
   128   65   69 1    
   129   65  131 1    
   130   66   67 am   BACKBONE|DICT|INTERRES
   131   66   68 2    
   132   67  132 1    
   133   67  133 1    
   134   69   70 1    
   135   69  134 1    
   136   69  135 1    
   137   70   71 1    
   138   71  136 1    
   139   71  137 1    
@<TRIPOS>SUBSTRUCTURE
     1 UNK         1 GROUP             0       ****    0 ROOT    
