@<TRIPOS>MOLECULE
3R137
137   139    1
SMALL
USER_CHARGES


@<TRIPOS>ATOM
      1 CA         24.5828   -7.4759   -3.0151 C.3       0 UNK        -0.2020 
      2 C          24.6782   -6.5482   -1.8133 C.2       0 UNK         0.4855 
      3 O          23.7215   -6.4386   -1.0462 O.2       0 UNK        -0.5197 
      4 N          25.8258   -5.8797   -1.6425 N.am      1 UNK        -0.4892 
      5 CA         26.0843   -4.9123   -0.5671 C.3       1 UNK         0.0835 
      6 C6         27.6055   -4.6899   -0.3651 C.3       12 UNK        -0.0855 
      7 S7         28.4618   -4.0460   -1.8461 S.3       12 UNK        -0.2931 
      8 C8         30.1782   -3.9846   -1.2510 C.3       12 UNK         0.0378 
      9 C9         30.9724   -2.9264   -2.0003 C.ar      12 UNK        -0.0802 
     10 C10        31.6850   -3.2533   -3.1588 C.ar      12 UNK        -0.0944 
     11 C11        32.4110   -2.2785   -3.8546 C.ar      12 UNK        -0.0787 
     12 C12        32.4401   -0.9733   -3.3481 C.ar      12 UNK        -0.0862 
     13 C13        31.7068   -0.6255   -2.2111 C.ar      12 UNK        -0.0733 
     14 C14        30.9777   -1.6080   -1.5385 C.ar      12 UNK        -0.0832 
     15 C15        31.6955    0.8111   -1.7096 C.3       12 UNK         0.0240 
     16 S16        30.3439    1.7786   -2.4597 S.3       12 UNK        -0.2522 
     17 C17        31.0360    2.1844   -4.1047 C.3       12 UNK        -0.0967 
     18 CA         30.1012    1.8831   -5.3053 C.3       5 UNK         0.0660 
     19 N          29.4808    0.5552   -5.2549 N.am      5 UNK        -0.4015 
     20 C          29.4239   -0.2931   -6.2881 C.2       4 UNK         0.4946 
     21 O          30.0302   -0.1415   -7.3505 O.2       4 UNK        -0.5353 
     22 CA         28.4809   -1.4972   -6.1470 C.3       4 UNK         0.0277 
     23 CB         29.0313   -2.5210   -5.1488 C.3       4 UNK        -0.1981 
     24 N          27.1058   -1.1572   -5.7727 N.am      4 UNK        -0.4209 
     25 C          26.3217   -0.2087   -6.3002 C.2       3 UNK         0.4942 
     26 O          26.7029    0.6000   -7.1476 O.2       3 UNK        -0.5208 
     27 CA         24.8606   -0.1284   -5.8113 C.3       3 UNK         0.0250 
     28 CB         23.9239   -0.8321   -6.8127 C.3       3 UNK        -0.1990 
     29 N          24.6068   -0.5931   -4.4330 N.am      3 UNK        -0.4232 
     30 C          24.7331   -1.8313   -3.9331 C.2       2 UNK         0.4993 
     31 O          25.1516   -2.7954   -4.5810 O.2       2 UNK        -0.5286 
     32 CA         24.3452   -2.0278   -2.4626 C.3       2 UNK         0.0209 
     33 CB         22.8177   -2.1133   -2.2934 C.3       2 UNK        -0.1931 
     34 N          24.9628   -3.2682   -2.0098 N.am      2 UNK        -0.4546 
     35 C          25.3323   -3.5742   -0.7619 C.2       1 UNK         0.5154 
     36 O          25.1138   -2.8499    0.2109 O.2       1 UNK        -0.5181 
     37 C          29.0369    2.9845   -5.4696 C.2       5 UNK         0.5014 
     38 O          29.2775    3.9315   -6.2177 O.2       5 UNK        -0.5248 
     39 N          27.8863    2.8503   -4.7894 N.am      6 UNK        -0.4434 
     40 CA         26.8327    3.8704   -4.6912 C.3       6 UNK         0.0363 
     41 CB         25.7368    3.3800   -3.7314 C.3       6 UNK        -0.1936 
     42 C          26.2184    4.3158   -6.0315 C.2       6 UNK         0.5081 
     43 O          25.8653    5.4873   -6.1686 O.2       6 UNK        -0.5248 
     44 N          26.1214    3.3906   -6.9922 N.am      7 UNK        -0.4718 
     45 CA         25.7079    3.6438   -8.3748 C.3       7 UNK         0.0273 
     46 CB         24.4346    2.8292   -8.6656 C.3       7 UNK        -0.1935 
     47 C          26.8350    3.2858   -9.3625 C.2       7 UNK         0.5018 
     48 O          26.5817    3.2332  -10.5667 O.2       7 UNK        -0.5186 
     49 N          28.0452    3.0268   -8.8387 N.am      8 UNK        -0.4240 
     50 CA         29.2534    2.5676   -9.5327 C.3       8 UNK         0.0235 
     51 CB         29.8270    3.6982  -10.4130 C.3       8 UNK        -0.2000 
     52 C          29.0612    1.2459  -10.3061 C.2       8 UNK         0.4941 
     53 O          29.6944    1.0537  -11.3458 O.2       8 UNK        -0.5273 
     54 N          28.1977    0.3536   -9.7962 N.am      9 UNK        -0.4262 
     55 CA         27.8176   -0.8969  -10.4605 C.3       9 UNK         0.0264 
     56 CB         26.5591   -1.4728   -9.7912 C.3       9 UNK        -0.1955 
     57 C          28.9334   -1.9574  -10.5306 C.2       9 UNK         0.5031 
     58 O          28.8457   -2.8428  -11.3834 O.2       9 UNK        -0.5390 
     59 N          29.9449   -1.8687   -9.6557 N.am      10 UNK        -0.4204 
     60 CA         31.0836   -2.7936   -9.6160 C.3       10 UNK         0.0237 
     61 CB         30.8190   -3.9075   -8.5887 C.3       10 UNK        -0.1985 
     62 C          32.4130   -2.0816   -9.3278 C.2       10 UNK         0.4970 
     63 O          33.4234   -2.4353   -9.9359 O.2       10 UNK        -0.4914 
     64 N          32.3923   -1.0980   -8.4228 N.am      11 UNK        -0.4285 
     65 CA         33.5415   -0.2725   -8.0233 C.3       11 UNK         0.1007 
     66 C          33.5543    1.1235   -8.7147 C.2       11 UNK         0.5703 
     67 N          32.6840    1.4046   -9.6772 N.am      11 UNK        -0.7361 
     68 O          34.3899    1.9650   -8.3937 O.2       11 UNK        -0.4986 
     69 C69        33.6172   -0.1699   -6.4739 C.3       12 UNK        -0.0947 
     70 S70        34.4688   -1.6014   -5.7209 S.3       12 UNK        -0.2240 
     71 C71        33.0946   -2.6708   -5.1689 C.3       12 UNK         0.0194 
     72 H72        24.3852   -8.4961   -2.6872 H         1 UNK         0.0906 
     73 H73        23.7670   -7.1629   -3.6663 H         1 UNK         0.0906 
     74 H74        25.5016   -7.4803   -3.6015 H         1 UNK         0.0906 
     75 H75        26.5835   -6.0008   -2.3009 H         1 UNK         0.3140 
     76 H76        25.6948   -5.3419    0.3589 H         1 UNK         0.1085 
     77 H77        28.0762   -5.6319   -0.0785 H         1 UNK         0.0836 
     78 H78        27.7800   -4.0064    0.4686 H         1 UNK         0.0836 
     79 H79        30.6385   -4.9667   -1.3699 H         1 UNK         0.0731 
     80 H80        30.1946   -3.7645   -0.1823 H         1 UNK         0.0731 
     81 H81        31.6522   -4.2674   -3.5335 H         1 UNK         0.1312 
     82 H82        33.0207   -0.2122   -3.8419 H         1 UNK         0.1406 
     83 H83        30.4079   -1.3454   -0.6572 H         1 UNK         0.1631 
     84 H84        32.6534    1.2954   -1.9055 H         1 UNK         0.0717 
     85 H85        31.5704    0.8213   -0.6258 H         1 UNK         0.0717 
     86 H86        31.3306    3.2362   -4.0988 H         1 UNK         0.0934 
     87 H87        31.9701    1.6476   -4.2492 H         1 UNK         0.0934 
     88 H88        30.7262    1.9465   -6.1992 H         1 UNK         0.0739 
     89 H89        29.0036    0.3094   -4.4008 H         1 UNK         0.3093 
     90 H90        28.4295   -1.9832   -7.1218 H         1 UNK         0.0818 
     91 H91        30.0324   -2.8415   -5.4293 H         1 UNK         0.0819 
     92 H92        29.0880   -2.1114   -4.1400 H         1 UNK         0.0819 
     93 H93        28.4090   -3.4154   -5.1093 H         1 UNK         0.0819 
     94 H94        26.6362   -1.8158   -5.1567 H         1 UNK         0.3041 
     95 H95        24.5986    0.9304   -5.8202 H         1 UNK         0.0784 
     96 H96        24.0415   -0.4222   -7.8161 H         1 UNK         0.0793 
     97 H97        24.1254   -1.9016   -6.8794 H         1 UNK         0.0793 
     98 H98        22.8780   -0.7050   -6.5333 H         1 UNK         0.0793 
     99 H99        24.2696    0.1233   -3.8045 H         1 UNK         0.3024 
    100 H100       24.7413   -1.1927   -1.8800 H         1 UNK         0.1171 
    101 H101       22.5423   -2.2610   -1.2490 H         1 UNK         0.0786 
    102 H102       22.3308   -1.1968   -2.6289 H         1 UNK         0.0786 
    103 H103       22.3958   -2.9384   -2.8691 H         1 UNK         0.0786 
    104 H104       25.2304   -3.8904   -2.7634 H         1 UNK         0.2977 
    105 H105       27.7827    2.0528   -4.1823 H         1 UNK         0.3127 
    106 H106       27.2926    4.7561   -4.2475 H         1 UNK         0.0770 
    107 H107       25.2647    2.4656   -4.0882 H         1 UNK         0.0814 
    108 H108       24.9515    4.1293   -3.6211 H         1 UNK         0.0814 
    109 H109       26.1370    3.1871   -2.7358 H         1 UNK         0.0814 
    110 H110       26.4297    2.4396   -6.8050 H         1 UNK         0.2983 
    111 H111       25.4839    4.7021   -8.5235 H         1 UNK         0.0947 
    112 H112       24.0410    3.0568   -9.6571 H         1 UNK         0.0806 
    113 H113       23.6466    3.0516   -7.9462 H         1 UNK         0.0806 
    114 H114       24.6297    1.7574   -8.6317 H         1 UNK         0.0806 
    115 H115       28.1557    3.1743   -7.8426 H         1 UNK         0.3000 
    116 H116       29.9857    2.3519   -8.7532 H         1 UNK         0.0850 
    117 H117       30.7872    3.4153  -10.8448 H         1 UNK         0.0810 
    118 H118       29.9904    4.6063   -9.8327 H         1 UNK         0.0810 
    119 H119       29.1598    3.9430  -11.2399 H         1 UNK         0.0810 
    120 H120       27.7336    0.5666   -8.9180 H         1 UNK         0.3040 
    121 H121       27.5562   -0.6460  -11.4908 H         1 UNK         0.0766 
    122 H122       25.7532   -0.7393   -9.7614 H         1 UNK         0.0812 
    123 H123       26.7545   -1.8003   -8.7714 H         1 UNK         0.0812 
    124 H124       26.1885   -2.3385  -10.3416 H         1 UNK         0.0812 
    125 H125       29.9329   -1.1087   -8.9804 H         1 UNK         0.3205 
    126 H126       31.2018   -3.2621  -10.5957 H         1 UNK         0.0754 
    127 H127       31.6627   -4.5966   -8.5303 H         1 UNK         0.0769 
    128 H128       29.9403   -4.4931   -8.8594 H         1 UNK         0.0769 
    129 H129       30.6559   -3.5036   -7.5909 H         1 UNK         0.0769 
    130 H130       31.5137   -0.8318   -7.9840 H         1 UNK         0.2981 
    131 H131       34.4619   -0.7450   -8.3707 H         1 UNK         0.0541 
    132 H132       32.0219    0.7163   -9.9957 H         1 UNK         0.3459 
    133 H133       32.7314    2.3052  -10.1248 H         1 UNK         0.3459 
    134 H134       34.1798    0.7091   -6.1552 H         1 UNK         0.0612 
    135 H135       32.6186   -0.0507   -6.0529 H         1 UNK         0.0612 
    136 H136       32.3475   -2.7131   -5.9607 H         1 UNK         0.0624 
    137 H137       33.4931   -3.6816   -5.0711 H         1 UNK         0.0624 
@<TRIPOS>BOND
     1    1    2 1    
     2    1   72 1    
     3    1   73 1    
     4    1   74 1    
     5    2    3 2    
     6    2    4 am   BACKBONE|DICT|INTERRES
     7    4    5 1    
     8    4   75 1    
     9    5    6 1    
    10    5   35 1    
    11    5   76 1    
    12    6    7 1    
    13    6   77 1    
    14    6   78 1    
    15    7    8 1    
    16    8    9 1    
    17    8   79 1    
    18    8   80 1    
    19    9   10 ar   
    20    9   14 ar   
    21   10   11 ar   
    22   10   81 1    
    23   11   12 ar   
    24   11   71 1    
    25   12   13 ar   
    26   12   82 1    
    27   13   14 ar   
    28   13   15 1    
    29   14   83 1    
    30   15   16 1    
    31   15   84 1    
    32   15   85 1    
    33   16   17 1    
    34   17   18 1    
    35   17   86 1    
    36   17   87 1    
    37   18   19 1    
    38   18   37 1    
    39   18   88 1    
    40   19   20 am   BACKBONE|DICT|INTERRES
    41   19   89 1    
    42   20   21 2    
    43   20   22 1    
    44   22   23 1    
    45   22   24 1    
    46   22   90 1    
    47   23   91 1    
    48   23   92 1    
    49   23   93 1    
    50   24   25 am   BACKBONE|DICT|INTERRES
    51   24   94 1    
    52   25   26 2    
    53   25   27 1    
    54   27   28 1    
    55   27   29 1    
    56   27   95 1    
    57   28   96 1    
    58   28   97 1    
    59   28   98 1    
    60   29   30 am   BACKBONE|DICT|INTERRES
    61   29   99 1    
    62   30   31 2    
    63   30   32 1    
    64   32   33 1    
    65   32   34 1    
    66   32  100 1    
    67   33  101 1    
    68   33  102 1    
    69   33  103 1    
    70   34   35 am   BACKBONE|DICT|INTERRES
    71   34  104 1    
    72   35   36 2    
    73   37   38 2    
    74   37   39 am   BACKBONE|DICT|INTERRES
    75   39   40 1    
    76   39  105 1    
    77   40   41 1    
    78   40   42 1    
    79   40  106 1    
    80   41  107 1    
    81   41  108 1    
    82   41  109 1    
    83   42   43 2    
    84   42   44 am   BACKBONE|DICT|INTERRES
    85   44   45 1    
    86   44  110 1    
    87   45   46 1    
    88   45   47 1    
    89   45  111 1    
    90   46  112 1    
    91   46  113 1    
    92   46  114 1    
    93   47   48 2    
    94   47   49 am   BACKBONE|DICT|INTERRES
    95   49   50 1    
    96   49  115 1    
    97   50   51 1    
    98   50   52 1    
    99   50  116 1    
   100   51  117 1    
   101   51  118 1    
   102   51  119 1    
   103   52   53 2    
   104   52   54 am   BACKBONE|DICT|INTERRES
   105   54   55 1    
   106   54  120 1    
   107   55   56 1    
   108   55   57 1    
   109   55  121 1    
   110   56  122 1    
   111   56  123 1    
   112   56  124 1    
   113   57   58 2    
   114   57   59 am   BACKBONE|DICT|INTERRES
   115   59   60 1    
   116   59  125 1    
   117   60   61 1    
   118   60   62 1    
   119   60  126 1    
   120   61  127 1    
   121   61  128 1    
   122   61  129 1    
   123   62   63 2    
   124   62   64 am   BACKBONE|DICT|INTERRES
   125   64   65 1    
   126   64  130 1    
   127   65   66 1    
   128   65   69 1    
   129   65  131 1    
   130   66   67 am   BACKBONE|DICT|INTERRES
   131   66   68 2    
   132   67  132 1    
   133   67  133 1    
   134   69   70 1    
   135   69  134 1    
   136   69  135 1    
   137   70   71 1    
   138   71  136 1    
   139   71  137 1    
@<TRIPOS>SUBSTRUCTURE
     1 UNK         1 GROUP             0       ****    0 ROOT    
