@<TRIPOS>MOLECULE
3R137
137   139    1
SMALL
USER_CHARGES


@<TRIPOS>ATOM
      1 CA         25.2660   -6.0644   -4.9909 C.3       0 UNK        -0.2020 
      2 C          25.5605   -5.3257   -3.6945 C.2       0 UNK         0.4855 
      3 O          24.6351   -4.8529   -3.0338 O.2       0 UNK        -0.5197 
      4 N          26.8444   -5.2087   -3.3311 N.am      1 UNK        -0.4892 
      5 CA         27.3306   -4.4975   -2.1436 C.3       1 UNK         0.0835 
      6 C6         28.8495   -4.7181   -1.9605 C.3       12 UNK        -0.0855 
      7 S7         29.4887   -4.0624   -0.3802 S.3       12 UNK        -0.2931 
      8 C8         31.1578   -3.5088   -0.8574 C.3       12 UNK         0.0378 
      9 C9         31.1277   -2.3299   -1.8211 C.ar      12 UNK        -0.0802 
     10 C10        31.3931   -2.5226   -3.1789 C.ar      12 UNK        -0.0944 
     11 C11        31.3892   -1.4438   -4.0665 C.ar      12 UNK        -0.0787 
     12 C12        31.1286   -0.1570   -3.5848 C.ar      12 UNK        -0.0862 
     13 C13        30.8421    0.0495   -2.2284 C.ar      12 UNK        -0.0733 
     14 C14        30.8501   -1.0430   -1.3540 C.ar      12 UNK        -0.0832 
     15 C15        30.5290    1.4389   -1.6742 C.3       12 UNK         0.0240 
     16 S16        29.4646    2.4749   -2.7382 S.3       12 UNK        -0.2522 
     17 C17        28.0537    1.3776   -3.1094 C.3       12 UNK        -0.0967 
     18 CA         27.8417    1.2557   -4.6418 C.3       5 UNK         0.0660 
     19 N          27.4404   -0.0916   -5.0489 N.am      5 UNK        -0.4015 
     20 C          27.3462   -0.5089   -6.3200 C.2       4 UNK         0.4946 
     21 O          27.6851    0.1649   -7.2938 O.2       4 UNK        -0.5353 
     22 CA         26.7097   -1.8899   -6.5432 C.3       4 UNK         0.0277 
     23 CB         27.7543   -3.0122   -6.4208 C.3       4 UNK        -0.1981 
     24 N          25.6003   -2.1222   -5.6129 N.am      4 UNK        -0.4209 
     25 C          24.4180   -1.4905   -5.6871 C.2       3 UNK         0.4942 
     26 O          24.1156   -0.7183   -6.5949 O.2       3 UNK        -0.5208 
     27 CA         23.4215   -1.7115   -4.5368 C.3       3 UNK         0.0250 
     28 CB         22.5075   -2.9120   -4.8259 C.3       3 UNK        -0.1990 
     29 N          24.0863   -1.8779   -3.2414 N.am      3 UNK        -0.4232 
     30 C          24.7081   -0.8788   -2.5944 C.2       2 UNK         0.4993 
     31 O          24.7412    0.2796   -3.0069 O.2       2 UNK        -0.5286 
     32 CA         25.4729   -1.2260   -1.3049 C.3       2 UNK         0.0209 
     33 CB         24.5593   -1.0720   -0.0793 C.3       2 UNK        -0.1931 
     34 N          26.0598   -2.5683   -1.3139 N.am      2 UNK        -0.4546 
     35 C          26.9475   -3.0040   -2.2182 C.2       1 UNK         0.5154 
     36 O          27.3955   -2.2988   -3.1256 O.2       1 UNK        -0.5181 
     37 C          26.8683    2.3296   -5.1738 C.2       5 UNK         0.5014 
     38 O          27.3152    3.3022   -5.7819 O.2       5 UNK        -0.5248 
     39 N          25.5569    2.1144   -4.9832 N.am      6 UNK        -0.4434 
     40 CA         24.4798    2.9772   -5.4834 C.3       6 UNK         0.0363 
     41 CB         23.1305    2.4924   -4.9311 C.3       6 UNK        -0.1936 
     42 C          24.4303    3.0712   -7.0190 C.2       6 UNK         0.5081 
     43 O          24.1467    4.1453   -7.5494 O.2       6 UNK        -0.5248 
     44 N          24.7435    1.9638   -7.7059 N.am      7 UNK        -0.4718 
     45 CA         24.9048    1.8951   -9.1622 C.3       7 UNK         0.0273 
     46 CB         24.8315    0.4240   -9.6042 C.3       7 UNK        -0.1935 
     47 C          26.2048    2.5466   -9.6772 C.2       7 UNK         0.5018 
     48 O          26.3584    2.6751  -10.8927 O.2       7 UNK        -0.5186 
     49 N          27.1078    2.9348   -8.7634 N.am      8 UNK        -0.4240 
     50 CA         28.4238    3.5349   -8.9963 C.3       8 UNK         0.0235 
     51 CB         28.2923    4.9259   -9.6540 C.3       8 UNK        -0.2000 
     52 C          29.3857    2.5933   -9.7432 C.2       8 UNK         0.4941 
     53 O          30.1161    3.0397  -10.6313 O.2       8 UNK        -0.5273 
     54 N          29.3792    1.3054   -9.3689 N.am      9 UNK        -0.4262 
     55 CA         30.3221    0.3038   -9.8684 C.3       9 UNK         0.0264 
     56 CB         29.8575   -1.0951   -9.4304 C.3       9 UNK        -0.1955 
     57 C          31.7438    0.5760   -9.3491 C.2       9 UNK         0.5031 
     58 O          31.9051    0.9562   -8.1868 O.2       9 UNK        -0.5390 
     59 N          32.7472    0.3454  -10.2063 N.am      10 UNK        -0.4204 
     60 CA         34.1667    0.4462   -9.8494 C.3       10 UNK         0.0237 
     61 CB         35.0207    0.4774  -11.1280 C.3       10 UNK        -0.1985 
     62 C          34.6212   -0.6920   -8.9182 C.2       10 UNK         0.4970 
     63 O          35.4406   -0.4466   -8.0324 O.2       10 UNK        -0.4914 
     64 N          34.0603   -1.8903   -9.1450 N.am      11 UNK        -0.4285 
     65 CA         34.2485   -3.1435   -8.3968 C.3       11 UNK         0.1007 
     66 C          35.7283   -3.5157   -8.0698 C.2       11 UNK         0.5703 
     67 N          36.0120   -4.1170   -6.9217 N.am      11 UNK        -0.7361 
     68 O          36.6197   -3.3267   -8.8959 O.2       11 UNK        -0.4986 
     69 C69        33.2120   -3.3153   -7.2461 C.3       12 UNK        -0.0947 
     70 S70        33.3805   -2.1550   -5.8453 S.3       12 UNK        -0.2240 
     71 C71        31.6452   -1.6904   -5.5451 C.3       12 UNK         0.0194 
     72 H72        24.8967   -5.3699   -5.7447 H         1 UNK         0.0906 
     73 H73        26.1523   -6.5581   -5.3889 H         1 UNK         0.0906 
     74 H74        24.5031   -6.8244   -4.8242 H         1 UNK         0.0906 
     75 H75        27.5604   -5.6036   -3.9240 H         1 UNK         0.3140 
     76 H76        26.8267   -4.9405   -1.2816 H         1 UNK         0.1085 
     77 H77        29.0740   -5.7858   -1.9809 H         1 UNK         0.0836 
     78 H78        29.3891   -4.2852   -2.8022 H         1 UNK         0.0836 
     79 H79        31.7049   -4.3481   -1.2899 H         1 UNK         0.0731 
     80 H80        31.7044   -3.2238    0.0428 H         1 UNK         0.0731 
     81 H81        31.6054   -3.5155   -3.5511 H         1 UNK         0.1312 
     82 H82        31.1314    0.6803   -4.2690 H         1 UNK         0.1406 
     83 H83        30.6385   -0.8965   -0.3032 H         1 UNK         0.1631 
     84 H84        31.4689    1.9654   -1.5046 H         1 UNK         0.0717 
     85 H85        30.0435    1.3567   -0.7003 H         1 UNK         0.0717 
     86 H86        28.2427    0.3963   -2.6727 H         1 UNK         0.0934 
     87 H87        27.1646    1.7487   -2.5953 H         1 UNK         0.0934 
     88 H88        28.7988    1.4245   -5.1411 H         1 UNK         0.0739 
     89 H89        27.2227   -0.7528   -4.3091 H         1 UNK         0.3093 
     90 H90        26.3106   -1.9128   -7.5594 H         1 UNK         0.0818 
     91 H91        28.2460   -3.0155   -5.4482 H         1 UNK         0.0819 
     92 H92        27.3034   -3.9926   -6.5736 H         1 UNK         0.0819 
     93 H93        28.5342   -2.8968   -7.1737 H         1 UNK         0.0819 
     94 H94        25.8017   -2.6806   -4.7954 H         1 UNK         0.3041 
     95 H95        22.7892   -0.8234   -4.4747 H         1 UNK         0.0784 
     96 H96        21.9465   -2.7573   -5.7486 H         1 UNK         0.0793 
     97 H97        23.0707   -3.8371   -4.9425 H         1 UNK         0.0793 
     98 H98        21.7812   -3.0600   -4.0266 H         1 UNK         0.0793 
     99 H99        24.1398   -2.8210   -2.8692 H         1 UNK         0.3024 
    100 H100       26.2927   -0.5102   -1.2134 H         1 UNK         0.1171 
    101 H101       24.1265   -0.0712   -0.0392 H         1 UNK         0.0786 
    102 H102       25.1113   -1.2209    0.8490 H         1 UNK         0.0786 
    103 H103       23.7331   -1.7840   -0.0983 H         1 UNK         0.0786 
    104 H104       25.7159   -3.2159   -0.6191 H         1 UNK         0.2977 
    105 H105       25.2707    1.3244   -4.4059 H         1 UNK         0.3127 
    106 H106       24.6634    3.9826   -5.0991 H         1 UNK         0.0770 
    107 H107       22.8923    1.4870   -5.2788 H         1 UNK         0.0814 
    108 H108       22.3198    3.1485   -5.2506 H         1 UNK         0.0814 
    109 H109       23.1277    2.4802   -3.8410 H         1 UNK         0.0814 
    110 H110       24.8823    1.0974   -7.1952 H         1 UNK         0.2983 
    111 H111       24.0730    2.4317   -9.6236 H         1 UNK         0.0947 
    112 H112       24.8937    0.3359  -10.6897 H         1 UNK         0.0806 
    113 H113       23.8933   -0.0377   -9.2962 H         1 UNK         0.0806 
    114 H114       25.6486   -0.1618   -9.1828 H         1 UNK         0.0806 
    115 H115       26.8870    2.7701   -7.7876 H         1 UNK         0.3000 
    116 H116       28.8642    3.6833   -8.0093 H         1 UNK         0.0850 
    117 H117       29.2592    5.4285   -9.6995 H         1 UNK         0.0810 
    118 H118       27.6199    5.5696   -9.0869 H         1 UNK         0.0810 
    119 H119       27.9137    4.8593  -10.6743 H         1 UNK         0.0810 
    120 H120       28.7582    1.0089   -8.6179 H         1 UNK         0.3040 
    121 H121       30.3190    0.3489  -10.9595 H         1 UNK         0.0766 
    122 H122       28.8375   -1.2975   -9.7580 H         1 UNK         0.0812 
    123 H123       29.8877   -1.2025   -8.3455 H         1 UNK         0.0812 
    124 H124       30.4963   -1.8718   -9.8522 H         1 UNK         0.0812 
    125 H125       32.5303    0.0584  -11.1504 H         1 UNK         0.3205 
    126 H126       34.3178    1.3887   -9.3180 H         1 UNK         0.0754 
    127 H127       36.0802    0.5727  -10.8852 H         1 UNK         0.0769 
    128 H128       34.7578    1.3260  -11.7600 H         1 UNK         0.0769 
    129 H129       34.9031   -0.4319  -11.7188 H         1 UNK         0.0769 
    130 H130       33.4304   -1.9593   -9.9289 H         1 UNK         0.2981 
    131 H131       33.9793   -3.9071   -9.1274 H         1 UNK         0.0541 
    132 H132       35.2933   -4.2643   -6.2305 H         1 UNK         0.3459 
    133 H133       36.9646   -4.3807   -6.7252 H         1 UNK         0.3459 
    134 H134       32.2123   -3.2108   -7.6698 H         1 UNK         0.0612 
    135 H135       33.2466   -4.3317   -6.8511 H         1 UNK         0.0612 
    136 H136       31.4002   -0.8098   -6.1404 H         1 UNK         0.0624 
    137 H137       30.9775   -2.4857   -5.8788 H         1 UNK         0.0624 
@<TRIPOS>BOND
     1    1    2 1    
     2    1   72 1    
     3    1   73 1    
     4    1   74 1    
     5    2    3 2    
     6    2    4 am   BACKBONE|DICT|INTERRES
     7    4    5 1    
     8    4   75 1    
     9    5    6 1    
    10    5   35 1    
    11    5   76 1    
    12    6    7 1    
    13    6   77 1    
    14    6   78 1    
    15    7    8 1    
    16    8    9 1    
    17    8   79 1    
    18    8   80 1    
    19    9   10 ar   
    20    9   14 ar   
    21   10   11 ar   
    22   10   81 1    
    23   11   12 ar   
    24   11   71 1    
    25   12   13 ar   
    26   12   82 1    
    27   13   14 ar   
    28   13   15 1    
    29   14   83 1    
    30   15   16 1    
    31   15   84 1    
    32   15   85 1    
    33   16   17 1    
    34   17   18 1    
    35   17   86 1    
    36   17   87 1    
    37   18   19 1    
    38   18   37 1    
    39   18   88 1    
    40   19   20 am   BACKBONE|DICT|INTERRES
    41   19   89 1    
    42   20   21 2    
    43   20   22 1    
    44   22   23 1    
    45   22   24 1    
    46   22   90 1    
    47   23   91 1    
    48   23   92 1    
    49   23   93 1    
    50   24   25 am   BACKBONE|DICT|INTERRES
    51   24   94 1    
    52   25   26 2    
    53   25   27 1    
    54   27   28 1    
    55   27   29 1    
    56   27   95 1    
    57   28   96 1    
    58   28   97 1    
    59   28   98 1    
    60   29   30 am   BACKBONE|DICT|INTERRES
    61   29   99 1    
    62   30   31 2    
    63   30   32 1    
    64   32   33 1    
    65   32   34 1    
    66   32  100 1    
    67   33  101 1    
    68   33  102 1    
    69   33  103 1    
    70   34   35 am   BACKBONE|DICT|INTERRES
    71   34  104 1    
    72   35   36 2    
    73   37   38 2    
    74   37   39 am   BACKBONE|DICT|INTERRES
    75   39   40 1    
    76   39  105 1    
    77   40   41 1    
    78   40   42 1    
    79   40  106 1    
    80   41  107 1    
    81   41  108 1    
    82   41  109 1    
    83   42   43 2    
    84   42   44 am   BACKBONE|DICT|INTERRES
    85   44   45 1    
    86   44  110 1    
    87   45   46 1    
    88   45   47 1    
    89   45  111 1    
    90   46  112 1    
    91   46  113 1    
    92   46  114 1    
    93   47   48 2    
    94   47   49 am   BACKBONE|DICT|INTERRES
    95   49   50 1    
    96   49  115 1    
    97   50   51 1    
    98   50   52 1    
    99   50  116 1    
   100   51  117 1    
   101   51  118 1    
   102   51  119 1    
   103   52   53 2    
   104   52   54 am   BACKBONE|DICT|INTERRES
   105   54   55 1    
   106   54  120 1    
   107   55   56 1    
   108   55   57 1    
   109   55  121 1    
   110   56  122 1    
   111   56  123 1    
   112   56  124 1    
   113   57   58 2    
   114   57   59 am   BACKBONE|DICT|INTERRES
   115   59   60 1    
   116   59  125 1    
   117   60   61 1    
   118   60   62 1    
   119   60  126 1    
   120   61  127 1    
   121   61  128 1    
   122   61  129 1    
   123   62   63 2    
   124   62   64 am   BACKBONE|DICT|INTERRES
   125   64   65 1    
   126   64  130 1    
   127   65   66 1    
   128   65   69 1    
   129   65  131 1    
   130   66   67 am   BACKBONE|DICT|INTERRES
   131   66   68 2    
   132   67  132 1    
   133   67  133 1    
   134   69   70 1    
   135   69  134 1    
   136   69  135 1    
   137   70   71 1    
   138   71  136 1    
   139   71  137 1    
@<TRIPOS>SUBSTRUCTURE
     1 UNK         1 GROUP             0       ****    0 ROOT    
