@<TRIPOS>MOLECULE
3R137
137   139    1
SMALL
USER_CHARGES


@<TRIPOS>ATOM
      1 CA         28.4502   -5.7688    2.7543 C.3       0 UNK        -0.2020 
      2 C          28.0931   -4.3497    2.3379 C.2       0 UNK         0.4855 
      3 O          28.3929   -3.4058    3.0697 O.2       0 UNK        -0.5197 
      4 N          27.4544   -4.1989    1.1731 N.am      1 UNK        -0.4892 
      5 CA         26.9759   -2.9304    0.6166 C.3       1 UNK         0.0835 
      6 C6         27.7685   -2.5123   -0.6500 C.3       12 UNK        -0.0855 
      7 S7         29.5093   -2.1174   -0.2718 S.3       12 UNK        -0.2931 
      8 C8         30.3685   -3.6078   -0.8691 C.3       12 UNK         0.0378 
      9 C9         30.7260   -3.4931   -2.3436 C.ar      12 UNK        -0.0802 
     10 C10        31.8920   -2.8199   -2.7227 C.ar      12 UNK        -0.0944 
     11 C11        32.2406   -2.7086   -4.0710 C.ar      12 UNK        -0.0787 
     12 C12        31.4159   -3.2795   -5.0434 C.ar      12 UNK        -0.0862 
     13 C13        30.2412   -3.9454   -4.6796 C.ar      12 UNK        -0.0733 
     14 C14        29.9049   -4.0578   -3.3264 C.ar      12 UNK        -0.0832 
     15 C15        29.3332   -4.5288   -5.7559 C.3       12 UNK         0.0240 
     16 S16        27.8225   -3.5364   -6.0013 S.3       12 UNK        -0.2522 
     17 C17        28.5075   -1.8632   -6.2489 C.3       12 UNK        -0.0967 
     18 CA         27.7093   -0.9971   -7.2515 C.3       5 UNK         0.0660 
     19 N          26.2747   -0.9539   -6.9365 N.am      5 UNK        -0.4015 
     20 C          25.3334   -0.1879   -7.5096 C.2       4 UNK         0.4946 
     21 O          25.5763    0.6531   -8.3770 O.2       4 UNK        -0.5353 
     22 CA         23.8719   -0.3741   -7.0561 C.3       4 UNK         0.0277 
     23 CB         22.9771   -0.7166   -8.2602 C.3       4 UNK        -0.1981 
     24 N          23.6665   -1.3846   -6.0106 N.am      4 UNK        -0.4209 
     25 C          24.0228   -1.2587   -4.7260 C.2       3 UNK         0.4942 
     26 O          24.6347   -0.2880   -4.2724 O.2       3 UNK        -0.5208 
     27 CA         23.6651   -2.4352   -3.8117 C.3       3 UNK         0.0250 
     28 CB         24.6185   -3.6234   -4.0350 C.3       3 UNK        -0.1990 
     29 N          23.7577   -2.0085   -2.4196 N.am      3 UNK        -0.4232 
     30 C          22.9545   -2.4069   -1.4273 C.2       2 UNK         0.4993 
     31 O          21.9998   -3.1716   -1.5827 O.2       2 UNK        -0.5286 
     32 CA         23.3053   -1.8724   -0.0231 C.3       2 UNK         0.0209 
     33 CB         22.4618   -2.5212    1.0963 C.3       2 UNK        -0.1931 
     34 N          24.7417   -1.9799    0.2833 N.am      2 UNK        -0.4546 
     35 C          25.4830   -3.1000    0.2876 C.2       1 UNK         0.5154 
     36 O          25.0442   -4.2250    0.0288 O.2       1 UNK        -0.5181 
     37 C          28.3701    0.3913   -7.3446 C.2       5 UNK         0.5014 
     38 O          29.1738    0.6157   -8.2505 O.2       5 UNK        -0.5248 
     39 N          27.9927    1.3012   -6.4347 N.am      6 UNK        -0.4434 
     40 CA         28.4711    2.6845   -6.3663 C.3       6 UNK         0.0363 
     41 CB         27.8864    3.3567   -5.1140 C.3       6 UNK        -0.1936 
     42 C          28.1607    3.5271   -7.6185 C.2       6 UNK         0.5081 
     43 O          28.9061    4.4635   -7.9042 O.2       6 UNK        -0.5248 
     44 N          27.0856    3.1831   -8.3388 N.am      7 UNK        -0.4718 
     45 CA         26.7043    3.8038   -9.6068 C.3       7 UNK         0.0273 
     46 CB         25.1852    4.0428   -9.6154 C.3       7 UNK        -0.1935 
     47 C          27.1146    2.9269  -10.7986 C.2       7 UNK         0.5018 
     48 O          27.5705    3.4617  -11.8097 O.2       7 UNK        -0.5186 
     49 N          26.9283    1.6052  -10.6704 N.am      8 UNK        -0.4240 
     50 CA         27.1505    0.6247  -11.7345 C.3       8 UNK         0.0235 
     51 CB         26.4889   -0.7070  -11.3437 C.3       8 UNK        -0.2000 
     52 C          28.6299    0.4064  -12.0921 C.2       8 UNK         0.4941 
     53 O          28.9311    0.2073  -13.2702 O.2       8 UNK        -0.5273 
     54 N          29.5144    0.4248  -11.0867 N.am      9 UNK        -0.4262 
     55 CA         30.9494    0.1629  -11.2391 C.3       9 UNK         0.0264 
     56 CB         31.2677   -1.2350  -10.6797 C.3       9 UNK        -0.1955 
     57 C          31.8259    1.2204  -10.5533 C.2       9 UNK         0.5031 
     58 O          32.9506    1.4427  -11.0045 O.2       9 UNK        -0.5390 
     59 N          31.3316    1.8153   -9.4562 N.am      10 UNK        -0.4204 
     60 CA         32.0109    2.7856   -8.5843 C.3       10 UNK         0.0237 
     61 CB         32.2824    4.1066   -9.3347 C.3       10 UNK        -0.1985 
     62 C          33.2694    2.2222   -7.8904 C.2       10 UNK         0.4970 
     63 O          34.1240    2.9975   -7.4585 O.2       10 UNK        -0.4914 
     64 N          33.3570    0.8868   -7.8020 N.am      11 UNK        -0.4285 
     65 CA         34.4894    0.1089   -7.2726 C.3       11 UNK         0.1007 
     66 C          35.8197    0.2817   -8.0697 C.2       11 UNK         0.5703 
     67 N          35.7825    0.7228   -9.3230 N.am      11 UNK        -0.7361 
     68 O          36.8985   -0.0202   -7.5644 O.2       11 UNK        -0.4986 
     69 C69        34.6603    0.2577   -5.7326 C.3       12 UNK        -0.0947 
     70 S70        33.1478   -0.2194   -4.8296 S.3       12 UNK        -0.2240 
     71 C71        33.5025   -1.9690   -4.4844 C.3       12 UNK         0.0194 
     72 H72        28.1321   -6.5039    2.0152 H         1 UNK         0.0906 
     73 H73        29.5285   -5.8617    2.8812 H         1 UNK         0.0906 
     74 H74        27.9729   -6.0133    3.7029 H         1 UNK         0.0906 
     75 H75        27.1429   -5.0136    0.6600 H         1 UNK         0.3140 
     76 H76        27.0580   -2.1382    1.3645 H         1 UNK         0.1085 
     77 H77        27.7167   -3.2875   -1.4162 H         1 UNK         0.0836 
     78 H78        27.3297   -1.6195   -1.0997 H         1 UNK         0.0836 
     79 H79        31.2798   -3.7417   -0.2843 H         1 UNK         0.0731 
     80 H80        29.7604   -4.4943   -0.6827 H         1 UNK         0.0731 
     81 H81        32.5247   -2.3748   -1.9666 H         1 UNK         0.1312 
     82 H82        31.6827   -3.1883   -6.0876 H         1 UNK         0.1406 
     83 H83        28.9980   -4.5747   -3.0438 H         1 UNK         0.1631 
     84 H84        29.0485   -5.5454   -5.4811 H         1 UNK         0.0717 
     85 H85        29.8630   -4.6074   -6.7066 H         1 UNK         0.0717 
     86 H86        29.5367   -1.9540   -6.6001 H         1 UNK         0.0934 
     87 H87        28.5620   -1.3836   -5.2688 H         1 UNK         0.0934 
     88 H88        27.7945   -1.4586   -8.2364 H         1 UNK         0.0739 
     89 H89        25.9725   -1.6147   -6.2365 H         1 UNK         0.3093 
     90 H90        23.5472    0.5895   -6.6578 H         1 UNK         0.0818 
     91 H91        21.9271   -0.7731   -7.9729 H         1 UNK         0.0819 
     92 H92        23.0539    0.0453   -9.0377 H         1 UNK         0.0819 
     93 H93        23.2555   -1.6696   -8.7118 H         1 UNK         0.0819 
     94 H94        23.1878   -2.2275   -6.2963 H         1 UNK         0.3041 
     95 H95        22.6412   -2.7392   -4.0411 H         1 UNK         0.0784 
     96 H96        24.5902   -3.9723   -5.0679 H         1 UNK         0.0793 
     97 H97        25.6513   -3.3579   -3.8053 H         1 UNK         0.0793 
     98 H98        24.3476   -4.4689   -3.4022 H         1 UNK         0.0793 
     99 H99        24.4714   -1.3145   -2.2382 H         1 UNK         0.3024 
    100 H100       23.0643   -0.8078   -0.0382 H         1 UNK         0.1171 
    101 H101       22.7074   -2.1020    2.0720 H         1 UNK         0.0786 
    102 H102       22.6147   -3.5999    1.1468 H         1 UNK         0.0786 
    103 H103       21.3969   -2.3519    0.9315 H         1 UNK         0.0786 
    104 H104       25.2022   -1.1052    0.4974 H         1 UNK         0.2977 
    105 H105       27.3084    1.0264   -5.7441 H         1 UNK         0.3127 
    106 H106       29.5560    2.6482   -6.2555 H         1 UNK         0.0770 
    107 H107       26.7968    3.3952   -5.1481 H         1 UNK         0.0814 
    108 H108       28.2456    4.3825   -5.0183 H         1 UNK         0.0814 
    109 H109       28.1773    2.8285   -4.2058 H         1 UNK         0.0814 
    110 H110       26.5470    2.3704   -8.0563 H         1 UNK         0.2983 
    111 H111       27.1982    4.7716   -9.7207 H         1 UNK         0.0947 
    112 H112       24.8679    4.5037  -10.5518 H         1 UNK         0.0806 
    113 H113       24.8867    4.7114   -8.8080 H         1 UNK         0.0806 
    114 H114       24.6263    3.1126   -9.5026 H         1 UNK         0.0806 
    115 H115       26.5031    1.2563   -9.8132 H         1 UNK         0.3000 
    116 H116       26.6512    0.9957  -12.6324 H         1 UNK         0.0850 
    117 H117       26.5977   -1.4458  -12.1389 H         1 UNK         0.0810 
    118 H118       25.4213   -0.5814  -11.1615 H         1 UNK         0.0810 
    119 H119       26.9331   -1.1295  -10.4428 H         1 UNK         0.0810 
    120 H120       29.1756    0.5796  -10.1415 H         1 UNK         0.3040 
    121 H121       31.2254    0.1772  -12.2956 H         1 UNK         0.0766 
    122 H122       32.3326   -1.4580  -10.7606 H         1 UNK         0.0812 
    123 H123       30.9912   -1.3229   -9.6282 H         1 UNK         0.0812 
    124 H124       30.7334   -2.0095  -11.2301 H         1 UNK         0.0812 
    125 H125       30.4377    1.4805   -9.0974 H         1 UNK         0.3205 
    126 H126       31.3108    3.0084   -7.7801 H         1 UNK         0.0754 
    127 H127       32.6473    4.8766   -8.6539 H         1 UNK         0.0769 
    128 H128       31.3721    4.4913   -9.7950 H         1 UNK         0.0769 
    129 H129       33.0309    3.9836  -10.1179 H         1 UNK         0.0769 
    130 H130       32.5980    0.3419   -8.1802 H         1 UNK         0.2981 
    131 H131       34.2199   -0.9316   -7.4556 H         1 UNK         0.0541 
    132 H132       34.9045    0.9681   -9.7598 H         1 UNK         0.3459 
    133 H133       36.6443    0.8206   -9.8357 H         1 UNK         0.3459 
    134 H134       34.9094    1.2872   -5.4718 H         1 UNK         0.0612 
    135 H135       35.4873   -0.3541   -5.3683 H         1 UNK         0.0612 
    136 H136       33.9293   -2.4388   -5.3719 H         1 UNK         0.0624 
    137 H137       34.2604   -2.0370   -3.7025 H         1 UNK         0.0624 
@<TRIPOS>BOND
     1    1    2 1    
     2    1   72 1    
     3    1   73 1    
     4    1   74 1    
     5    2    3 2    
     6    2    4 am   BACKBONE|DICT|INTERRES
     7    4    5 1    
     8    4   75 1    
     9    5    6 1    
    10    5   35 1    
    11    5   76 1    
    12    6    7 1    
    13    6   77 1    
    14    6   78 1    
    15    7    8 1    
    16    8    9 1    
    17    8   79 1    
    18    8   80 1    
    19    9   10 ar   
    20    9   14 ar   
    21   10   11 ar   
    22   10   81 1    
    23   11   12 ar   
    24   11   71 1    
    25   12   13 ar   
    26   12   82 1    
    27   13   14 ar   
    28   13   15 1    
    29   14   83 1    
    30   15   16 1    
    31   15   84 1    
    32   15   85 1    
    33   16   17 1    
    34   17   18 1    
    35   17   86 1    
    36   17   87 1    
    37   18   19 1    
    38   18   37 1    
    39   18   88 1    
    40   19   20 am   BACKBONE|DICT|INTERRES
    41   19   89 1    
    42   20   21 2    
    43   20   22 1    
    44   22   23 1    
    45   22   24 1    
    46   22   90 1    
    47   23   91 1    
    48   23   92 1    
    49   23   93 1    
    50   24   25 am   BACKBONE|DICT|INTERRES
    51   24   94 1    
    52   25   26 2    
    53   25   27 1    
    54   27   28 1    
    55   27   29 1    
    56   27   95 1    
    57   28   96 1    
    58   28   97 1    
    59   28   98 1    
    60   29   30 am   BACKBONE|DICT|INTERRES
    61   29   99 1    
    62   30   31 2    
    63   30   32 1    
    64   32   33 1    
    65   32   34 1    
    66   32  100 1    
    67   33  101 1    
    68   33  102 1    
    69   33  103 1    
    70   34   35 am   BACKBONE|DICT|INTERRES
    71   34  104 1    
    72   35   36 2    
    73   37   38 2    
    74   37   39 am   BACKBONE|DICT|INTERRES
    75   39   40 1    
    76   39  105 1    
    77   40   41 1    
    78   40   42 1    
    79   40  106 1    
    80   41  107 1    
    81   41  108 1    
    82   41  109 1    
    83   42   43 2    
    84   42   44 am   BACKBONE|DICT|INTERRES
    85   44   45 1    
    86   44  110 1    
    87   45   46 1    
    88   45   47 1    
    89   45  111 1    
    90   46  112 1    
    91   46  113 1    
    92   46  114 1    
    93   47   48 2    
    94   47   49 am   BACKBONE|DICT|INTERRES
    95   49   50 1    
    96   49  115 1    
    97   50   51 1    
    98   50   52 1    
    99   50  116 1    
   100   51  117 1    
   101   51  118 1    
   102   51  119 1    
   103   52   53 2    
   104   52   54 am   BACKBONE|DICT|INTERRES
   105   54   55 1    
   106   54  120 1    
   107   55   56 1    
   108   55   57 1    
   109   55  121 1    
   110   56  122 1    
   111   56  123 1    
   112   56  124 1    
   113   57   58 2    
   114   57   59 am   BACKBONE|DICT|INTERRES
   115   59   60 1    
   116   59  125 1    
   117   60   61 1    
   118   60   62 1    
   119   60  126 1    
   120   61  127 1    
   121   61  128 1    
   122   61  129 1    
   123   62   63 2    
   124   62   64 am   BACKBONE|DICT|INTERRES
   125   64   65 1    
   126   64  130 1    
   127   65   66 1    
   128   65   69 1    
   129   65  131 1    
   130   66   67 am   BACKBONE|DICT|INTERRES
   131   66   68 2    
   132   67  132 1    
   133   67  133 1    
   134   69   70 1    
   135   69  134 1    
   136   69  135 1    
   137   70   71 1    
   138   71  136 1    
   139   71  137 1    
@<TRIPOS>SUBSTRUCTURE
     1 UNK         1 GROUP             0       ****    0 ROOT    
