@<TRIPOS>MOLECULE
3R137
137   139    1
SMALL
USER_CHARGES


@<TRIPOS>ATOM
      1 CA         25.6542   -5.3517    0.0495 C.3       0 UNK        -0.2020 
      2 C          25.9435   -4.0042    0.6925 C.2       0 UNK         0.4855 
      3 O          25.3552   -3.6726    1.7217 O.2       0 UNK        -0.5197 
      4 N          26.8272   -3.2067    0.0808 N.am      1 UNK        -0.4892 
      5 CA         27.2650   -1.8723    0.5190 C.3       1 UNK         0.0835 
      6 C6         28.6735   -1.5396   -0.0459 C.3       12 UNK        -0.0855 
      7 S7         28.8233   -1.7794   -1.8554 S.3       12 UNK        -0.2931 
      8 C8         30.1858   -2.9800   -1.9419 C.3       12 UNK         0.0378 
      9 C9         30.5518   -3.3183   -3.3805 C.ar      12 UNK        -0.0802 
     10 C10        31.7234   -2.8095   -3.9525 C.ar      12 UNK        -0.0944 
     11 C11        32.0981   -3.1793   -5.2481 C.ar      12 UNK        -0.0787 
     12 C12        31.2786   -4.0443   -5.9809 C.ar      12 UNK        -0.0862 
     13 C13        30.1020   -4.5545   -5.4235 C.ar      12 UNK        -0.0733 
     14 C14        29.7438   -4.1859   -4.1226 C.ar      12 UNK        -0.0832 
     15 C15        29.2578   -5.5583   -6.2002 C.3       12 UNK         0.0240 
     16 S16        28.3627   -4.8096   -7.5984 S.3       12 UNK        -0.2522 
     17 C17        27.1110   -3.7938   -6.7429 C.3       12 UNK        -0.0967 
     18 CA         26.8433   -2.4392   -7.4452 C.3       5 UNK         0.0660 
     19 N          25.6402   -1.7972   -6.9056 N.am      5 UNK        -0.4015 
     20 C          25.1363   -0.6060   -7.2614 C.2       4 UNK         0.4946 
     21 O          25.6369    0.1170   -8.1224 O.2       4 UNK        -0.5353 
     22 CA         23.8600   -0.1238   -6.5436 C.3       4 UNK         0.0277 
     23 CB         22.6921   -0.0226   -7.5390 C.3       4 UNK        -0.1981 
     24 N          23.4472   -0.9526   -5.4035 N.am      4 UNK        -0.4209 
     25 C          24.0941   -1.0286   -4.2329 C.2       3 UNK         0.4942 
     26 O          25.1470   -0.4344   -3.9920 O.2       3 UNK        -0.5208 
     27 CA         23.4978   -1.9960   -3.1970 C.3       3 UNK         0.0250 
     28 CB         24.0516   -3.4153   -3.4143 C.3       3 UNK        -0.1990 
     29 N          23.7944   -1.5864   -1.8259 N.am      3 UNK        -0.4232 
     30 C          23.2864   -0.5155   -1.1997 C.2       2 UNK         0.4993 
     31 O          22.4457    0.2337   -1.6994 O.2       2 UNK        -0.5286 
     32 CA         23.7747   -0.2476    0.2383 C.3       2 UNK         0.0209 
     33 CB         22.6542   -0.5342    1.2522 C.3       2 UNK        -0.1931 
     34 N          24.9492   -1.0507    0.5938 N.am      2 UNK        -0.4546 
     35 C          26.2081   -0.7759    0.2300 C.2       1 UNK         0.5154 
     36 O          26.5266    0.2754   -0.3278 O.2       1 UNK        -0.5181 
     37 C          28.0791   -1.5157   -7.4193 C.2       5 UNK         0.5014 
     38 O          28.7312   -1.3573   -8.4517 O.2       5 UNK        -0.5248 
     39 N          28.3412   -0.8788   -6.2681 N.am      6 UNK        -0.4434 
     40 CA         29.4544    0.0569   -6.0971 C.3       6 UNK         0.0363 
     41 CB         29.6077    0.4359   -4.6180 C.3       6 UNK        -0.1936 
     42 C          29.3385    1.3196   -6.9624 C.2       6 UNK         0.5081 
     43 O          30.3604    1.8126   -7.4352 O.2       6 UNK        -0.5248 
     44 N          28.1107    1.8119   -7.1736 N.am      7 UNK        -0.4718 
     45 CA         27.8323    2.9524   -8.0476 C.3       7 UNK         0.0273 
     46 CB         26.4287    3.5076   -7.7551 C.3       7 UNK        -0.1935 
     47 C          27.9848    2.5804   -9.5303 C.2       7 UNK         0.5018 
     48 O          28.5893    3.3433  -10.2837 O.2       7 UNK        -0.5186 
     49 N          27.4615    1.4064   -9.9109 N.am      8 UNK        -0.4240 
     50 CA         27.5364    0.8513  -11.2635 C.3       8 UNK         0.0235 
     51 CB         26.6328   -0.3891  -11.3591 C.3       8 UNK        -0.2000 
     52 C          28.9730    0.5164  -11.6978 C.2       8 UNK         0.4941 
     53 O          29.3626    0.8639  -12.8133 O.2       8 UNK        -0.5273 
     54 N          29.7355   -0.1383  -10.8118 N.am      9 UNK        -0.4262 
     55 CA         31.1314   -0.5198  -11.0436 C.3       9 UNK         0.0264 
     56 CB         31.4617   -1.7420  -10.1724 C.3       9 UNK        -0.1955 
     57 C          32.1377    0.6206  -10.7944 C.2       9 UNK         0.5031 
     58 O          33.3012    0.4692  -11.1704 O.2       9 UNK        -0.5390 
     59 N          31.6882    1.7234  -10.1744 N.am      10 UNK        -0.4204 
     60 CA         32.4650    2.9006   -9.7614 C.3       10 UNK         0.0237 
     61 CB         33.0019    3.6710  -10.9869 C.3       10 UNK        -0.1985 
     62 C          33.5579    2.5470   -8.7322 C.2       10 UNK         0.4970 
     63 O          34.7171    2.9359   -8.8915 O.2       10 UNK        -0.4914 
     64 N          33.1581    1.7956   -7.7017 N.am      11 UNK        -0.4285 
     65 CA         34.0054    1.3553   -6.5864 C.3       11 UNK         0.1007 
     66 C          34.3141    2.5100   -5.5963 C.2       11 UNK         0.5703 
     67 N          35.4624    2.4652   -4.9341 N.am      11 UNK        -0.7361 
     68 O          33.5146    3.4227   -5.3943 O.2       11 UNK        -0.4986 
     69 C69        33.3828    0.1394   -5.8507 C.3       12 UNK        -0.0947 
     70 S70        33.2064   -1.2954   -6.9629 S.3       12 UNK        -0.2240 
     71 C71        33.4199   -2.7063   -5.8375 C.3       12 UNK         0.0194 
     72 H72        24.5964   -5.4286   -0.2010 H         1 UNK         0.0906 
     73 H73        26.2305   -5.5012   -0.8633 H         1 UNK         0.0906 
     74 H74        25.8999   -6.1569    0.7414 H         1 UNK         0.0906 
     75 H75        27.2591   -3.5142   -0.7798 H         1 UNK         0.3140 
     76 H76        27.3603   -1.8955    1.6072 H         1 UNK         0.1085 
     77 H77        28.9660   -0.5167    0.1992 H         1 UNK         0.0836 
     78 H78        29.4087   -2.1700    0.4566 H         1 UNK         0.0836 
     79 H79        29.9013   -3.8913   -1.4135 H         1 UNK         0.0731 
     80 H80        31.0522   -2.5762   -1.4154 H         1 UNK         0.0731 
     81 H81        32.3599   -2.1491   -3.3796 H         1 UNK         0.1312 
     82 H82        31.5683   -4.3396   -6.9803 H         1 UNK         0.1406 
     83 H83        28.8462   -4.5902   -3.6747 H         1 UNK         0.1631 
     84 H84        28.5427   -6.0574   -5.5444 H         1 UNK         0.0717 
     85 H85        29.9097   -6.3430   -6.5867 H         1 UNK         0.0717 
     86 H86        26.1937   -4.3840   -6.7105 H         1 UNK         0.0934 
     87 H87        27.3991   -3.6351   -5.7026 H         1 UNK         0.0934 
     88 H88        26.6248   -2.6442   -8.4954 H         1 UNK         0.0739 
     89 H89        25.1472   -2.3077   -6.1901 H         1 UNK         0.3093 
     90 H90        24.0727    0.8795   -6.1679 H         1 UNK         0.0818 
     91 H91        21.8042    0.4007   -7.0691 H         1 UNK         0.0819 
     92 H92        22.9485    0.6247   -8.3793 H         1 UNK         0.0819 
     93 H93        22.4250   -0.9970   -7.9497 H         1 UNK         0.0819 
     94 H94        22.5992   -1.4890   -5.5246 H         1 UNK         0.3041 
     95 H95        22.4122   -2.0158   -3.3160 H         1 UNK         0.0784 
     96 H96        23.8078   -3.7862   -4.4106 H         1 UNK         0.0793 
     97 H97        25.1374   -3.4461   -3.3102 H         1 UNK         0.0793 
     98 H98        23.6272   -4.1205   -2.6991 H         1 UNK         0.0793 
     99 H99        24.5077   -2.1104   -1.3434 H         1 UNK         0.3024 
    100 H100       24.0352    0.8116    0.2999 H         1 UNK         0.1171 
    101 H101       22.9683   -0.2944    2.2682 H         1 UNK         0.0786 
    102 H102       21.7691    0.0667    1.0381 H         1 UNK         0.0786 
    103 H103       22.3504   -1.5817    1.2328 H         1 UNK         0.0786 
    104 H104       24.7870   -1.9318    1.0751 H         1 UNK         0.2977 
    105 H105       27.7450   -1.0369   -5.4679 H         1 UNK         0.3127 
    106 H106       30.3628   -0.4613   -6.4099 H         1 UNK         0.0770 
    107 H107       28.6630    0.7539   -4.1754 H         1 UNK         0.0814 
    108 H108       30.3208    1.2510   -4.4868 H         1 UNK         0.0814 
    109 H109       29.9871   -0.4079   -4.0458 H         1 UNK         0.0814 
    110 H110       27.3156    1.3139   -6.7991 H         1 UNK         0.2983 
    111 H111       28.5583    3.7385   -7.8267 H         1 UNK         0.0947 
    112 H112       26.2212    4.3812   -8.3744 H         1 UNK         0.0806 
    113 H113       26.3348    3.8194   -6.7149 H         1 UNK         0.0806 
    114 H114       25.6473    2.7746   -7.9572 H         1 UNK         0.0806 
    115 H115       26.9436    0.8635   -9.2217 H         1 UNK         0.3000 
    116 H116       27.1508    1.6066  -11.9515 H         1 UNK         0.0850 
    117 H117       26.6525   -0.8113  -12.3647 H         1 UNK         0.0810 
    118 H118       25.5960   -0.1415  -11.1301 H         1 UNK         0.0810 
    119 H119       26.9473   -1.1721  -10.6681 H         1 UNK         0.0810 
    120 H120       29.3230   -0.4411   -9.9290 H         1 UNK         0.3040 
    121 H121       31.2431   -0.8180  -12.0883 H         1 UNK         0.0766 
    122 H122       31.3109   -1.5276   -9.1149 H         1 UNK         0.0812 
    123 H123       32.4993   -2.0533  -10.2997 H         1 UNK         0.0812 
    124 H124       30.8316   -2.5936  -10.4290 H         1 UNK         0.0812 
    125 H125       30.7213    1.7242   -9.8777 H         1 UNK         0.3205 
    126 H126       31.7637    3.5581   -9.2449 H         1 UNK         0.0754 
    127 H127       33.4759    4.6048  -10.6825 H         1 UNK         0.0769 
    128 H128       32.1971    3.9259  -11.6765 H         1 UNK         0.0769 
    129 H129       33.7457    3.0942  -11.5374 H         1 UNK         0.0769 
    130 H130       32.1625    1.6062   -7.6101 H         1 UNK         0.2981 
    131 H131       34.9578    1.0334   -7.0130 H         1 UNK         0.0541 
    132 H132       36.1223    1.7177   -5.0829 H         1 UNK         0.3459 
    133 H133       35.6767    3.1984   -4.2763 H         1 UNK         0.3459 
    134 H134       32.4059    0.3915   -5.4392 H         1 UNK         0.0612 
    135 H135       34.0078   -0.1482   -5.0038 H         1 UNK         0.0612 
    136 H136       33.8720   -3.5245   -6.3999 H         1 UNK         0.0624 
    137 H137       34.1324   -2.4600   -5.0492 H         1 UNK         0.0624 
@<TRIPOS>BOND
     1    1    2 1    
     2    1   72 1    
     3    1   73 1    
     4    1   74 1    
     5    2    3 2    
     6    2    4 am   BACKBONE|DICT|INTERRES
     7    4    5 1    
     8    4   75 1    
     9    5    6 1    
    10    5   35 1    
    11    5   76 1    
    12    6    7 1    
    13    6   77 1    
    14    6   78 1    
    15    7    8 1    
    16    8    9 1    
    17    8   79 1    
    18    8   80 1    
    19    9   10 ar   
    20    9   14 ar   
    21   10   11 ar   
    22   10   81 1    
    23   11   12 ar   
    24   11   71 1    
    25   12   13 ar   
    26   12   82 1    
    27   13   14 ar   
    28   13   15 1    
    29   14   83 1    
    30   15   16 1    
    31   15   84 1    
    32   15   85 1    
    33   16   17 1    
    34   17   18 1    
    35   17   86 1    
    36   17   87 1    
    37   18   19 1    
    38   18   37 1    
    39   18   88 1    
    40   19   20 am   BACKBONE|DICT|INTERRES
    41   19   89 1    
    42   20   21 2    
    43   20   22 1    
    44   22   23 1    
    45   22   24 1    
    46   22   90 1    
    47   23   91 1    
    48   23   92 1    
    49   23   93 1    
    50   24   25 am   BACKBONE|DICT|INTERRES
    51   24   94 1    
    52   25   26 2    
    53   25   27 1    
    54   27   28 1    
    55   27   29 1    
    56   27   95 1    
    57   28   96 1    
    58   28   97 1    
    59   28   98 1    
    60   29   30 am   BACKBONE|DICT|INTERRES
    61   29   99 1    
    62   30   31 2    
    63   30   32 1    
    64   32   33 1    
    65   32   34 1    
    66   32  100 1    
    67   33  101 1    
    68   33  102 1    
    69   33  103 1    
    70   34   35 am   BACKBONE|DICT|INTERRES
    71   34  104 1    
    72   35   36 2    
    73   37   38 2    
    74   37   39 am   BACKBONE|DICT|INTERRES
    75   39   40 1    
    76   39  105 1    
    77   40   41 1    
    78   40   42 1    
    79   40  106 1    
    80   41  107 1    
    81   41  108 1    
    82   41  109 1    
    83   42   43 2    
    84   42   44 am   BACKBONE|DICT|INTERRES
    85   44   45 1    
    86   44  110 1    
    87   45   46 1    
    88   45   47 1    
    89   45  111 1    
    90   46  112 1    
    91   46  113 1    
    92   46  114 1    
    93   47   48 2    
    94   47   49 am   BACKBONE|DICT|INTERRES
    95   49   50 1    
    96   49  115 1    
    97   50   51 1    
    98   50   52 1    
    99   50  116 1    
   100   51  117 1    
   101   51  118 1    
   102   51  119 1    
   103   52   53 2    
   104   52   54 am   BACKBONE|DICT|INTERRES
   105   54   55 1    
   106   54  120 1    
   107   55   56 1    
   108   55   57 1    
   109   55  121 1    
   110   56  122 1    
   111   56  123 1    
   112   56  124 1    
   113   57   58 2    
   114   57   59 am   BACKBONE|DICT|INTERRES
   115   59   60 1    
   116   59  125 1    
   117   60   61 1    
   118   60   62 1    
   119   60  126 1    
   120   61  127 1    
   121   61  128 1    
   122   61  129 1    
   123   62   63 2    
   124   62   64 am   BACKBONE|DICT|INTERRES
   125   64   65 1    
   126   64  130 1    
   127   65   66 1    
   128   65   69 1    
   129   65  131 1    
   130   66   67 am   BACKBONE|DICT|INTERRES
   131   66   68 2    
   132   67  132 1    
   133   67  133 1    
   134   69   70 1    
   135   69  134 1    
   136   69  135 1    
   137   70   71 1    
   138   71  136 1    
   139   71  137 1    
@<TRIPOS>SUBSTRUCTURE
     1 UNK         1 GROUP             0       ****    0 ROOT    
