@<TRIPOS>MOLECULE
3R137
137   139    1
SMALL
USER_CHARGES


@<TRIPOS>ATOM
      1 CA         22.8193   -4.1498   -5.1181 C.3       0 UNK        -0.2020 
      2 C          23.4513   -4.0343   -3.7397 C.2       0 UNK         0.4855 
      3 O          22.9618   -3.2698   -2.9075 O.2       0 UNK        -0.5197 
      4 N          24.5429   -4.7736   -3.4998 N.am      1 UNK        -0.4892 
      5 CA         25.3277   -4.7965   -2.2587 C.3       1 UNK         0.0835 
      6 C6         26.4840   -5.8371   -2.3028 C.3       12 UNK        -0.0855 
      7 S7         27.3923   -5.9403   -3.8920 S.3       12 UNK        -0.2931 
      8 C8         29.1150   -6.1907   -3.3576 C.3       12 UNK         0.0378 
      9 C9         29.9414   -4.9133   -3.4360 C.ar      12 UNK        -0.0802 
     10 C10        30.7893   -4.6888   -4.5263 C.ar      12 UNK        -0.0944 
     11 C11        31.6087   -3.5555   -4.5716 C.ar      12 UNK        -0.0787 
     12 C12        31.5693   -2.6381   -3.5178 C.ar      12 UNK        -0.0862 
     13 C13        30.7035   -2.8336   -2.4390 C.ar      12 UNK        -0.0733 
     14 C14        29.8965   -3.9759   -2.4005 C.ar      12 UNK        -0.0832 
     15 C15        30.6517   -1.8264   -1.3007 C.3       12 UNK         0.0240 
     16 S16        29.0713   -0.9292   -1.2837 S.3       12 UNK        -0.2522 
     17 C17        29.3893    0.5127   -2.3515 C.3       12 UNK        -0.0967 
     18 CA         29.3003    0.2574   -3.8798 C.3       5 UNK         0.0660 
     19 N          28.1037   -0.4966   -4.2813 N.am      5 UNK        -0.4015 
     20 C          27.7459   -0.7810   -5.5452 C.2       4 UNK         0.4946 
     21 O          28.4166   -0.4938   -6.5353 O.2       4 UNK        -0.5353 
     22 CA         26.3569   -1.3912   -5.7723 C.3       4 UNK         0.0277 
     23 CB         26.4545   -2.9111   -5.9525 C.3       4 UNK        -0.1981 
     24 N          25.3848   -1.0556   -4.7269 N.am      4 UNK        -0.4209 
     25 C          24.9630    0.1848   -4.4324 C.2       3 UNK         0.4942 
     26 O          25.3886    1.2019   -4.9832 O.2       3 UNK        -0.5208 
     27 CA         23.9166    0.3123   -3.3155 C.3       3 UNK         0.0250 
     28 CB         22.5048    0.0507   -3.8634 C.3       3 UNK        -0.1990 
     29 N          24.2006   -0.5985   -2.2042 N.am      3 UNK        -0.4232 
     30 C          25.1498   -0.3656   -1.2844 C.2       2 UNK         0.4993 
     31 O          25.7897    0.6843   -1.2195 O.2       2 UNK        -0.5286 
     32 CA         25.4548   -1.4876   -0.2734 C.3       2 UNK         0.0209 
     33 CB         24.6459   -1.2798    1.0172 C.3       2 UNK        -0.1931 
     34 N          25.2150   -2.8429   -0.7807 N.am      2 UNK        -0.4546 
     35 C          25.8065   -3.3865   -1.8550 C.2       1 UNK         0.5154 
     36 O          26.6391   -2.8009   -2.5455 O.2       1 UNK        -0.5181 
     37 C          29.4565    1.6064   -4.6206 C.2       5 UNK         0.5014 
     38 O          30.5886    2.0420   -4.8305 O.2       5 UNK        -0.5248 
     39 N          28.3313    2.2304   -5.0010 N.am      6 UNK        -0.4434 
     40 CA         28.2812    3.4076   -5.8634 C.3       6 UNK         0.0363 
     41 CB         27.4158    4.4903   -5.1978 C.3       6 UNK        -0.1936 
     42 C          27.7225    3.0457   -7.2479 C.2       6 UNK         0.5081 
     43 O          28.3180    3.4259   -8.2564 O.2       6 UNK        -0.5248 
     44 N          26.5865    2.3316   -7.2846 N.am      7 UNK        -0.4718 
     45 CA         25.7902    2.0910   -8.4934 C.3       7 UNK         0.0273 
     46 CB         24.4266    1.4959   -8.1047 C.3       7 UNK        -0.1935 
     47 C          26.4694    1.2376   -9.5783 C.2       7 UNK         0.5018 
     48 O          26.0837    1.3559  -10.7423 O.2       7 UNK        -0.5186 
     49 N          27.4657    0.4165   -9.2129 N.am      8 UNK        -0.4240 
     50 CA         28.2632   -0.3560  -10.1719 C.3       8 UNK         0.0235 
     51 CB         28.9384   -1.5339   -9.4539 C.3       8 UNK        -0.2000 
     52 C          29.3155    0.4897  -10.9132 C.2       8 UNK         0.4941 
     53 O          29.8985   -0.0109  -11.8760 O.2       8 UNK        -0.5273 
     54 N          29.5743    1.7250  -10.4512 N.am      9 UNK        -0.4262 
     55 CA         30.5124    2.7333  -10.9716 C.3       9 UNK         0.0264 
     56 CB         30.1408    3.1591  -12.4053 C.3       9 UNK        -0.1955 
     57 C          32.0039    2.3576  -10.8752 C.2       9 UNK         0.5031 
     58 O          32.8157    3.2180  -10.5332 O.2       9 UNK        -0.5390 
     59 N          32.3439    1.0968  -11.1679 N.am      10 UNK        -0.4204 
     60 CA         33.6871    0.5267  -11.0409 C.3       10 UNK         0.0237 
     61 CB         33.7471   -0.8004  -11.8147 C.3       10 UNK        -0.1985 
     62 C          34.1124    0.3160   -9.5768 C.2       10 UNK         0.4970 
     63 O          35.3072    0.3785   -9.2834 O.2       10 UNK        -0.4914 
     64 N          33.1371    0.0645   -8.6944 N.am      11 UNK        -0.4285 
     65 CA         33.3242   -0.0585   -7.2430 C.3       11 UNK         0.1007 
     66 C          33.7092    1.2903   -6.5731 C.2       11 UNK         0.5703 
     67 N          34.4300    1.2418   -5.4603 N.am      11 UNK        -0.7361 
     68 O          33.3477    2.3712   -7.0341 O.2       11 UNK        -0.4986 
     69 C69        32.0769   -0.6817   -6.5663 C.3       12 UNK        -0.0947 
     70 S70        31.7935   -2.4048   -7.0957 S.3       12 UNK        -0.2240 
     71 C71        32.5615   -3.3472   -5.7411 C.3       12 UNK         0.0194 
     72 H72        21.7734   -4.4413   -5.0263 H         1 UNK         0.0906 
     73 H73        22.8613   -3.1903   -5.6327 H         1 UNK         0.0906 
     74 H74        23.3238   -4.8909   -5.7378 H         1 UNK         0.0906 
     75 H75        24.9249   -5.3515   -4.2361 H         1 UNK         0.3140 
     76 H76        24.6410   -5.1329   -1.4787 H         1 UNK         0.1085 
     77 H77        26.0685   -6.8294   -2.1202 H         1 UNK         0.0836 
     78 H78        27.1828   -5.6679   -1.4815 H         1 UNK         0.0836 
     79 H79        29.5600   -6.9563   -3.9950 H         1 UNK         0.0731 
     80 H80        29.1472   -6.5976   -2.3461 H         1 UNK         0.0731 
     81 H81        30.8271   -5.4075   -5.3337 H         1 UNK         0.1312 
     82 H82        32.2128   -1.7703   -3.5338 H         1 UNK         0.1406 
     83 H83        29.2310   -4.1316   -1.5626 H         1 UNK         0.1631 
     84 H84        31.4827   -1.1214   -1.3521 H         1 UNK         0.0717 
     85 H85        30.7607   -2.3578   -0.3543 H         1 UNK         0.0717 
     86 H86        28.6603    1.2716   -2.0583 H         1 UNK         0.0934 
     87 H87        30.3660    0.9264   -2.0925 H         1 UNK         0.0934 
     88 H88        30.1502   -0.3584   -4.1717 H         1 UNK         0.0739 
     89 H89        27.5235   -0.8465   -3.5283 H         1 UNK         0.3093 
     90 H90        25.9810   -0.9764   -6.7080 H         1 UNK         0.0818 
     91 H91        26.8297   -3.3935   -5.0523 H         1 UNK         0.0819 
     92 H92        25.4899   -3.3504   -6.2021 H         1 UNK         0.0819 
     93 H93        27.1431   -3.1634   -6.7600 H         1 UNK         0.0819 
     94 H94        25.0611   -1.8204   -4.1529 H         1 UNK         0.3041 
     95 H95        23.9470    1.3399   -2.9462 H         1 UNK         0.0784 
     96 H96        22.2661    0.7468   -4.6688 H         1 UNK         0.0793 
     97 H97        22.4016   -0.9577   -4.2645 H         1 UNK         0.0793 
     98 H98        21.7494    0.1809   -3.0884 H         1 UNK         0.0793 
     99 H99        23.7189   -1.4929   -2.2025 H         1 UNK         0.3024 
    100 H100       26.5147   -1.4160   -0.0245 H         1 UNK         0.1171 
    101 H101       24.9250   -2.0041    1.7827 H         1 UNK         0.0786 
    102 H102       24.8246   -0.2873    1.4337 H         1 UNK         0.0786 
    103 H103       23.5733   -1.3710    0.8409 H         1 UNK         0.0786 
    104 H104       24.5063   -3.3778   -0.2992 H         1 UNK         0.2977 
    105 H105       27.4433    1.7845   -4.7998 H         1 UNK         0.3127 
    106 H106       29.2820    3.8196   -6.0105 H         1 UNK         0.0770 
    107 H107       26.4002    4.1404   -5.0068 H         1 UNK         0.0814 
    108 H108       27.3437    5.3760   -5.8306 H         1 UNK         0.0814 
    109 H109       27.8438    4.8062   -4.2464 H         1 UNK         0.0814 
    110 H110       26.1634    2.0250   -6.4106 H         1 UNK         0.2983 
    111 H111       25.6044    3.0678   -8.9455 H         1 UNK         0.0947 
    112 H112       23.7857    1.3848   -8.9804 H         1 UNK         0.0806 
    113 H113       23.8993    2.1383   -7.3992 H         1 UNK         0.0806 
    114 H114       24.5251    0.5115   -7.6499 H         1 UNK         0.0806 
    115 H115       27.7331    0.3473   -8.2344 H         1 UNK         0.3000 
    116 H116       27.5917   -0.7689  -10.9279 H         1 UNK         0.0850 
    117 H117       28.2112   -2.1524   -8.9281 H         1 UNK         0.0810 
    118 H118       29.6715   -1.1869   -8.7267 H         1 UNK         0.0810 
    119 H119       29.4628   -2.1783  -10.1607 H         1 UNK         0.0810 
    120 H120       29.0493    2.0369   -9.6396 H         1 UNK         0.3040 
    121 H121       30.3751    3.6052  -10.3296 H         1 UNK         0.0766 
    122 H122       29.1084    3.5046  -12.4598 H         1 UNK         0.0812 
    123 H123       30.2597    2.3435  -13.1191 H         1 UNK         0.0812 
    124 H124       30.7754    3.9793  -12.7434 H         1 UNK         0.0812 
    125 H125       31.5954    0.4833  -11.4883 H         1 UNK         0.3205 
    126 H126       34.3968    1.2217  -11.4947 H         1 UNK         0.0754 
    127 H127       34.7432   -1.2417  -11.7572 H         1 UNK         0.0769 
    128 H128       33.5189   -0.6539  -12.8707 H         1 UNK         0.0769 
    129 H129       33.0417   -1.5318  -11.4176 H         1 UNK         0.0769 
    130 H130       32.1845    0.0430   -9.0210 H         1 UNK         0.2981 
    131 H131       34.1639   -0.7393   -7.0875 H         1 UNK         0.0541 
    132 H132       34.7351    0.3642   -5.0704 H         1 UNK         0.3459 
    133 H133       34.6787    2.1054   -5.0042 H         1 UNK         0.3459 
    134 H134       32.1738   -0.6542   -5.4823 H         1 UNK         0.0612 
    135 H135       31.1843   -0.0985   -6.7998 H         1 UNK         0.0612 
    136 H136       33.4721   -2.8453   -5.4105 H         1 UNK         0.0624 
    137 H137       32.8776   -4.3156   -6.1317 H         1 UNK         0.0624 
@<TRIPOS>BOND
     1    1    2 1    
     2    1   72 1    
     3    1   73 1    
     4    1   74 1    
     5    2    3 2    
     6    2    4 am   BACKBONE|DICT|INTERRES
     7    4    5 1    
     8    4   75 1    
     9    5    6 1    
    10    5   35 1    
    11    5   76 1    
    12    6    7 1    
    13    6   77 1    
    14    6   78 1    
    15    7    8 1    
    16    8    9 1    
    17    8   79 1    
    18    8   80 1    
    19    9   10 ar   
    20    9   14 ar   
    21   10   11 ar   
    22   10   81 1    
    23   11   12 ar   
    24   11   71 1    
    25   12   13 ar   
    26   12   82 1    
    27   13   14 ar   
    28   13   15 1    
    29   14   83 1    
    30   15   16 1    
    31   15   84 1    
    32   15   85 1    
    33   16   17 1    
    34   17   18 1    
    35   17   86 1    
    36   17   87 1    
    37   18   19 1    
    38   18   37 1    
    39   18   88 1    
    40   19   20 am   BACKBONE|DICT|INTERRES
    41   19   89 1    
    42   20   21 2    
    43   20   22 1    
    44   22   23 1    
    45   22   24 1    
    46   22   90 1    
    47   23   91 1    
    48   23   92 1    
    49   23   93 1    
    50   24   25 am   BACKBONE|DICT|INTERRES
    51   24   94 1    
    52   25   26 2    
    53   25   27 1    
    54   27   28 1    
    55   27   29 1    
    56   27   95 1    
    57   28   96 1    
    58   28   97 1    
    59   28   98 1    
    60   29   30 am   BACKBONE|DICT|INTERRES
    61   29   99 1    
    62   30   31 2    
    63   30   32 1    
    64   32   33 1    
    65   32   34 1    
    66   32  100 1    
    67   33  101 1    
    68   33  102 1    
    69   33  103 1    
    70   34   35 am   BACKBONE|DICT|INTERRES
    71   34  104 1    
    72   35   36 2    
    73   37   38 2    
    74   37   39 am   BACKBONE|DICT|INTERRES
    75   39   40 1    
    76   39  105 1    
    77   40   41 1    
    78   40   42 1    
    79   40  106 1    
    80   41  107 1    
    81   41  108 1    
    82   41  109 1    
    83   42   43 2    
    84   42   44 am   BACKBONE|DICT|INTERRES
    85   44   45 1    
    86   44  110 1    
    87   45   46 1    
    88   45   47 1    
    89   45  111 1    
    90   46  112 1    
    91   46  113 1    
    92   46  114 1    
    93   47   48 2    
    94   47   49 am   BACKBONE|DICT|INTERRES
    95   49   50 1    
    96   49  115 1    
    97   50   51 1    
    98   50   52 1    
    99   50  116 1    
   100   51  117 1    
   101   51  118 1    
   102   51  119 1    
   103   52   53 2    
   104   52   54 am   BACKBONE|DICT|INTERRES
   105   54   55 1    
   106   54  120 1    
   107   55   56 1    
   108   55   57 1    
   109   55  121 1    
   110   56  122 1    
   111   56  123 1    
   112   56  124 1    
   113   57   58 2    
   114   57   59 am   BACKBONE|DICT|INTERRES
   115   59   60 1    
   116   59  125 1    
   117   60   61 1    
   118   60   62 1    
   119   60  126 1    
   120   61  127 1    
   121   61  128 1    
   122   61  129 1    
   123   62   63 2    
   124   62   64 am   BACKBONE|DICT|INTERRES
   125   64   65 1    
   126   64  130 1    
   127   65   66 1    
   128   65   69 1    
   129   65  131 1    
   130   66   67 am   BACKBONE|DICT|INTERRES
   131   66   68 2    
   132   67  132 1    
   133   67  133 1    
   134   69   70 1    
   135   69  134 1    
   136   69  135 1    
   137   70   71 1    
   138   71  136 1    
   139   71  137 1    
@<TRIPOS>SUBSTRUCTURE
     1 UNK         1 GROUP             0       ****    0 ROOT    
