@<TRIPOS>MOLECULE
3R137
137   139    1
SMALL
USER_CHARGES


@<TRIPOS>ATOM
      1 CA         29.2992    2.0767    0.3616 C.3       0 UNK        -0.2020 
      2 C          29.3070    0.7574    1.1304 C.2       0 UNK         0.4855 
      3 O          29.5330    0.7690    2.3387 O.2       0 UNK        -0.5197 
      4 N          29.0805   -0.4011    0.4933 N.am      1 UNK        -0.4892 
      5 CA         28.7505   -0.5975   -0.9261 C.3       1 UNK         0.0835 
      6 C6         28.8046   -2.0953   -1.3189 C.3       12 UNK        -0.0855 
      7 S7         30.4999   -2.7516   -1.2188 S.3       12 UNK        -0.2931 
      8 C8         30.2815   -4.4252   -1.9063 C.3       12 UNK         0.0378 
      9 C9         30.2556   -4.4509   -3.4312 C.ar      12 UNK        -0.0802 
     10 C10        31.3524   -3.9813   -4.1611 C.ar      12 UNK        -0.0944 
     11 C11        31.3754   -4.0727   -5.5560 C.ar      12 UNK        -0.0787 
     12 C12        30.2857   -4.6418   -6.2259 C.ar      12 UNK        -0.0862 
     13 C13        29.1913   -5.1372   -5.5076 C.ar      12 UNK        -0.0733 
     14 C14        29.1750   -5.0217   -4.1127 C.ar      12 UNK        -0.0832 
     15 C15        28.0727   -5.8916   -6.2168 C.3       12 UNK         0.0240 
     16 S16        26.6019   -4.8638   -6.5214 S.3       12 UNK        -0.2522 
     17 C17        26.7672   -4.4444   -8.2980 C.3       12 UNK        -0.0967 
     18 CA         26.4747   -2.9580   -8.6308 C.3       5 UNK         0.0660 
     19 N          25.2057   -2.4976   -8.0593 N.am      5 UNK        -0.4015 
     20 C          24.6429   -1.3006   -8.2748 C.2       4 UNK         0.4946 
     21 O          25.0931   -0.4558   -9.0478 O.2       4 UNK        -0.5353 
     22 CA         23.3833   -0.9721   -7.4563 C.3       4 UNK         0.0277 
     23 CB         22.1247   -1.4824   -8.1759 C.3       4 UNK        -0.1981 
     24 N          23.4155   -1.4951   -6.0850 N.am      4 UNK        -0.4209 
     25 C          24.3155   -1.1440   -5.1563 C.2       3 UNK         0.4942 
     26 O          25.2585   -0.3770   -5.3649 O.2       3 UNK        -0.5208 
     27 CA         24.1548   -1.7838   -3.7746 C.3       3 UNK         0.0250 
     28 CB         24.9073   -3.1243   -3.7000 C.3       3 UNK        -0.1990 
     29 N          24.6869   -0.8697   -2.7699 N.am      3 UNK        -0.4232 
     30 C          24.2601   -0.7600   -1.5075 C.2       2 UNK         0.4993 
     31 O          23.3526   -1.4460   -1.0324 O.2       2 UNK        -0.5286 
     32 CA         25.0012    0.2612   -0.6206 C.3       2 UNK         0.0209 
     33 CB         24.3222    0.4673    0.7468 C.3       2 UNK        -0.1931 
     34 N          26.3906   -0.1487   -0.4010 N.am      2 UNK        -0.4546 
     35 C          27.3777   -0.0048   -1.2948 C.2       1 UNK         0.5154 
     36 O          27.2357    0.5778   -2.3692 O.2       1 UNK        -0.5181 
     37 C          27.6475   -2.0456   -8.2316 C.2       5 UNK         0.5014 
     38 O          28.3776   -1.5714   -9.1018 O.2       5 UNK        -0.5248 
     39 N          27.7699   -1.7906   -6.9242 N.am      6 UNK        -0.4434 
     40 CA         28.7865   -0.9306   -6.3315 C.3       6 UNK         0.0363 
     41 CB         28.7599   -1.0890   -4.8096 C.3       6 UNK        -0.1936 
     42 C          28.6373    0.5389   -6.7348 C.2       6 UNK         0.5081 
     43 O          29.6504    1.1958   -6.9683 O.2       6 UNK        -0.5248 
     44 N          27.3915    1.0188   -6.8419 N.am      7 UNK        -0.4718 
     45 CA         27.0650    2.3550   -7.3399 C.3       7 UNK         0.0273 
     46 CB         25.5726    2.6421   -7.1125 C.3       7 UNK        -0.1935 
     47 C          27.4444    2.5402   -8.8192 C.2       7 UNK         0.5018 
     48 O          28.0334    3.5652   -9.1631 O.2       7 UNK        -0.5186 
     49 N          27.1231    1.5447   -9.6589 N.am      8 UNK        -0.4240 
     50 CA         27.4389    1.5322  -11.0891 C.3       8 UNK         0.0235 
     51 CB         26.6566    0.4063  -11.7847 C.3       8 UNK        -0.2000 
     52 C          28.9440    1.4013  -11.3714 C.2       8 UNK         0.4941 
     53 O          29.4691    2.1480  -12.1981 O.2       8 UNK        -0.5273 
     54 N          29.6103    0.4609  -10.6875 N.am      9 UNK        -0.4262 
     55 CA         31.0420    0.1859  -10.8450 C.3       9 UNK         0.0264 
     56 CB         31.3252   -1.2548  -10.3931 C.3       9 UNK        -0.1955 
     57 C          31.9565    1.1814  -10.1060 C.2       9 UNK         0.5031 
     58 O          33.1581    1.1889  -10.3781 O.2       9 UNK        -0.5390 
     59 N          31.3873    1.9883   -9.1977 N.am      10 UNK        -0.4204 
     60 CA         32.0495    2.9554   -8.3145 C.3       10 UNK         0.0237 
     61 CB         32.7120    4.0934   -9.1211 C.3       10 UNK        -0.1985 
     62 C          33.0049    2.2669   -7.3205 C.2       10 UNK         0.4970 
     63 O          34.1646    2.6655   -7.1939 O.2       10 UNK        -0.4914 
     64 N          32.4905    1.2373   -6.6364 N.am      11 UNK        -0.4285 
     65 CA         33.2183    0.4546   -5.6220 C.3       11 UNK         0.1007 
     66 C          33.3991    1.1865   -4.2603 C.2       11 UNK         0.5703 
     67 N          32.6921    2.2782   -3.9901 N.am      11 UNK        -0.7361 
     68 O          34.2049    0.7595   -3.4371 O.2       11 UNK        -0.4986 
     69 C69        32.5975   -0.9513   -5.4074 C.3       12 UNK        -0.0947 
     70 S70        32.4971   -1.9265   -6.9443 S.3       12 UNK        -0.2240 
     71 C71        32.6144   -3.6330   -6.3273 C.3       12 UNK         0.0194 
     72 H72        29.8265    1.9981   -0.5881 H         1 UNK         0.0906 
     73 H73        28.2776    2.4052    0.1724 H         1 UNK         0.0906 
     74 H74        29.7946    2.8547    0.9423 H         1 UNK         0.0906 
     75 H75        29.1418   -1.2535    1.0321 H         1 UNK         0.3140 
     76 H76        29.4946   -0.0717   -1.5278 H         1 UNK         0.1085 
     77 H77        28.1574   -2.6899   -0.6710 H         1 UNK         0.0836 
     78 H78        28.4373   -2.2541   -2.3326 H         1 UNK         0.0836 
     79 H79        29.3780   -4.8718   -1.4882 H         1 UNK         0.0731 
     80 H80        31.1110   -5.0473   -1.5676 H         1 UNK         0.0731 
     81 H81        32.2011   -3.5648   -3.6361 H         1 UNK         0.1312 
     82 H82        30.3111   -4.7384   -7.3027 H         1 UNK         0.1406 
     83 H83        28.3361   -5.4181   -3.5565 H         1 UNK         0.1631 
     84 H84        27.7697   -6.7384   -5.5991 H         1 UNK         0.0717 
     85 H85        28.4335   -6.3293   -7.1485 H         1 UNK         0.0717 
     86 H86        27.7566   -4.7255   -8.6644 H         1 UNK         0.0934 
     87 H87        26.0682   -5.0777   -8.8466 H         1 UNK         0.0934 
     88 H88        26.3767   -2.8784   -9.7157 H         1 UNK         0.0739 
     89 H89        24.7686   -3.1234   -7.3990 H         1 UNK         0.3093 
     90 H90        23.3162    0.1155   -7.3883 H         1 UNK         0.0818 
     91 H91        21.2170   -1.1658   -7.6618 H         1 UNK         0.0819 
     92 H92        22.0714   -1.0895   -9.1925 H         1 UNK         0.0819 
     93 H93        22.1097   -2.5708   -8.2464 H         1 UNK         0.0819 
     94 H94        22.6789   -2.1377   -5.8294 H         1 UNK         0.3041 
     95 H95        23.0910   -1.9489   -3.5897 H         1 UNK         0.0784 
     96 H96        24.5203   -3.8337   -4.4323 H         1 UNK         0.0793 
     97 H97        25.9738   -3.0004   -3.8935 H         1 UNK         0.0793 
     98 H98        24.7991   -3.5854   -2.7182 H         1 UNK         0.0793 
     99 H99        25.4345   -0.2622   -3.0957 H         1 UNK         0.3024 
    100 H100       24.9876    1.2194   -1.1460 H         1 UNK         0.1171 
    101 H101       24.8313    1.2350    1.3300 H         1 UNK         0.0786 
    102 H102       23.2872    0.7891    0.6239 H         1 UNK         0.0786 
    103 H103       24.3111   -0.4498    1.3372 H         1 UNK         0.0786 
    104 H104       26.5890   -0.6422    0.4578 H         1 UNK         0.2977 
    105 H105       27.1105   -2.2191   -6.2915 H         1 UNK         0.3127 
    106 H106       29.7553   -1.2698   -6.6964 H         1 UNK         0.0770 
    107 H107       27.7535   -0.9598   -4.4134 H         1 UNK         0.0814 
    108 H108       29.1124   -2.0784   -4.5255 H         1 UNK         0.0814 
    109 H109       29.4016   -0.3580   -4.3164 H         1 UNK         0.0814 
    110 H110       26.6166    0.4277   -6.5533 H         1 UNK         0.2983 
    111 H111       27.6429    3.0756   -6.7570 H         1 UNK         0.0947 
    112 H112       25.3079    2.5517   -6.0587 H         1 UNK         0.0806 
    113 H113       24.9389    1.9570   -7.6755 H         1 UNK         0.0806 
    114 H114       25.3184    3.6551   -7.4270 H         1 UNK         0.0806 
    115 H115       26.5928    0.7530   -9.3023 H         1 UNK         0.3000 
    116 H116       27.1063    2.4830  -11.5113 H         1 UNK         0.0850 
    117 H117       26.8743    0.3791  -12.8532 H         1 UNK         0.0810 
    118 H118       25.5811    0.5475  -11.6760 H         1 UNK         0.0810 
    119 H119       26.9059   -0.5729  -11.3734 H         1 UNK         0.0810 
    120 H120       29.0971   -0.1513  -10.0535 H         1 UNK         0.3040 
    121 H121       31.2920    0.2551  -11.9059 H         1 UNK         0.0766 
    122 H122       31.0327   -1.4085   -9.3552 H         1 UNK         0.0812 
    123 H123       32.3857   -1.4969  -10.4749 H         1 UNK         0.0812 
    124 H124       30.7782   -1.9753  -11.0011 H         1 UNK         0.0812 
    125 H125       30.4032    1.8463   -9.0066 H         1 UNK         0.3205 
    126 H126       31.2573    3.4042   -7.7131 H         1 UNK         0.0754 
    127 H127       33.0928    4.8698   -8.4565 H         1 UNK         0.0769 
    128 H128       31.9987    4.5659   -9.7964 H         1 UNK         0.0769 
    129 H129       33.5528    3.7370   -9.7168 H         1 UNK         0.0769 
    130 H130       31.5087    1.0111   -6.7732 H         1 UNK         0.2981 
    131 H131       34.2286    0.2984   -6.0053 H         1 UNK         0.0541 
    132 H132       32.0278    2.6347   -4.6575 H         1 UNK         0.3459 
    133 H133       32.8262    2.7468   -3.1084 H         1 UNK         0.3459 
    134 H134       31.5978   -0.8707   -4.9826 H         1 UNK         0.0612 
    135 H135       33.1914   -1.5143   -4.6854 H         1 UNK         0.0612 
    136 H136       33.5068   -3.7335   -5.7077 H         1 UNK         0.0624 
    137 H137       32.7657   -4.2968   -7.1797 H         1 UNK         0.0624 
@<TRIPOS>BOND
     1    1    2 1    
     2    1   72 1    
     3    1   73 1    
     4    1   74 1    
     5    2    3 2    
     6    2    4 am   BACKBONE|DICT|INTERRES
     7    4    5 1    
     8    4   75 1    
     9    5    6 1    
    10    5   35 1    
    11    5   76 1    
    12    6    7 1    
    13    6   77 1    
    14    6   78 1    
    15    7    8 1    
    16    8    9 1    
    17    8   79 1    
    18    8   80 1    
    19    9   10 ar   
    20    9   14 ar   
    21   10   11 ar   
    22   10   81 1    
    23   11   12 ar   
    24   11   71 1    
    25   12   13 ar   
    26   12   82 1    
    27   13   14 ar   
    28   13   15 1    
    29   14   83 1    
    30   15   16 1    
    31   15   84 1    
    32   15   85 1    
    33   16   17 1    
    34   17   18 1    
    35   17   86 1    
    36   17   87 1    
    37   18   19 1    
    38   18   37 1    
    39   18   88 1    
    40   19   20 am   BACKBONE|DICT|INTERRES
    41   19   89 1    
    42   20   21 2    
    43   20   22 1    
    44   22   23 1    
    45   22   24 1    
    46   22   90 1    
    47   23   91 1    
    48   23   92 1    
    49   23   93 1    
    50   24   25 am   BACKBONE|DICT|INTERRES
    51   24   94 1    
    52   25   26 2    
    53   25   27 1    
    54   27   28 1    
    55   27   29 1    
    56   27   95 1    
    57   28   96 1    
    58   28   97 1    
    59   28   98 1    
    60   29   30 am   BACKBONE|DICT|INTERRES
    61   29   99 1    
    62   30   31 2    
    63   30   32 1    
    64   32   33 1    
    65   32   34 1    
    66   32  100 1    
    67   33  101 1    
    68   33  102 1    
    69   33  103 1    
    70   34   35 am   BACKBONE|DICT|INTERRES
    71   34  104 1    
    72   35   36 2    
    73   37   38 2    
    74   37   39 am   BACKBONE|DICT|INTERRES
    75   39   40 1    
    76   39  105 1    
    77   40   41 1    
    78   40   42 1    
    79   40  106 1    
    80   41  107 1    
    81   41  108 1    
    82   41  109 1    
    83   42   43 2    
    84   42   44 am   BACKBONE|DICT|INTERRES
    85   44   45 1    
    86   44  110 1    
    87   45   46 1    
    88   45   47 1    
    89   45  111 1    
    90   46  112 1    
    91   46  113 1    
    92   46  114 1    
    93   47   48 2    
    94   47   49 am   BACKBONE|DICT|INTERRES
    95   49   50 1    
    96   49  115 1    
    97   50   51 1    
    98   50   52 1    
    99   50  116 1    
   100   51  117 1    
   101   51  118 1    
   102   51  119 1    
   103   52   53 2    
   104   52   54 am   BACKBONE|DICT|INTERRES
   105   54   55 1    
   106   54  120 1    
   107   55   56 1    
   108   55   57 1    
   109   55  121 1    
   110   56  122 1    
   111   56  123 1    
   112   56  124 1    
   113   57   58 2    
   114   57   59 am   BACKBONE|DICT|INTERRES
   115   59   60 1    
   116   59  125 1    
   117   60   61 1    
   118   60   62 1    
   119   60  126 1    
   120   61  127 1    
   121   61  128 1    
   122   61  129 1    
   123   62   63 2    
   124   62   64 am   BACKBONE|DICT|INTERRES
   125   64   65 1    
   126   64  130 1    
   127   65   66 1    
   128   65   69 1    
   129   65  131 1    
   130   66   67 am   BACKBONE|DICT|INTERRES
   131   66   68 2    
   132   67  132 1    
   133   67  133 1    
   134   69   70 1    
   135   69  134 1    
   136   69  135 1    
   137   70   71 1    
   138   71  136 1    
   139   71  137 1    
@<TRIPOS>SUBSTRUCTURE
     1 UNK         1 GROUP             0       ****    0 ROOT    
