@<TRIPOS>MOLECULE
3R137
137   139    1
SMALL
USER_CHARGES


@<TRIPOS>ATOM
      1 CA         26.2433   -5.2027   -1.9665 C.3       0 UNK        -0.2020 
      2 C          26.8754   -4.2443   -0.9686 C.2       0 UNK         0.4855 
      3 O          26.3498   -4.0681    0.1303 O.2       0 UNK        -0.5197 
      4 N          27.9979   -3.6187   -1.3456 N.am      1 UNK        -0.4892 
      5 CA         28.7419   -2.6541   -0.5223 C.3       1 UNK         0.0835 
      6 C6         30.2261   -2.5742   -0.9530 C.3       12 UNK        -0.0855 
      7 S7         31.1850   -4.0634   -0.4958 S.3       12 UNK        -0.2931 
      8 C8         30.8429   -5.2608   -1.8357 C.3       12 UNK         0.0378 
      9 C9         30.9371   -4.6747   -3.2403 C.ar      12 UNK        -0.0802 
     10 C10        32.0146   -3.8615   -3.6067 C.ar      12 UNK        -0.0944 
     11 C11        32.0829   -3.2995   -4.8832 C.ar      12 UNK        -0.0787 
     12 C12        31.0718   -3.5823   -5.8063 C.ar      12 UNK        -0.0862 
     13 C13        30.0046   -4.4234   -5.4727 C.ar      12 UNK        -0.0733 
     14 C14        29.9471   -4.9675   -4.1844 C.ar      12 UNK        -0.0832 
     15 C15        28.9814   -4.7885   -6.5490 C.3       12 UNK         0.0240 
     16 S16        27.2760   -5.0710   -5.9532 S.3       12 UNK        -0.2522 
     17 C17        26.7444   -3.4082   -5.4326 C.3       12 UNK        -0.0967 
     18 CA         26.4943   -2.4465   -6.6320 C.3       5 UNK         0.0660 
     19 N          25.1716   -1.8124   -6.5886 N.am      5 UNK        -0.4015 
     20 C          24.6547   -1.0674   -7.5793 C.2       4 UNK         0.4946 
     21 O          25.2201   -0.8617   -8.6518 O.2       4 UNK        -0.5353 
     22 CA         23.2909   -0.4041   -7.3318 C.3       4 UNK         0.0277 
     23 CB         22.1522   -1.3384   -7.7707 C.3       4 UNK        -0.1981 
     24 N          23.0740    0.0147   -5.9464 N.am      4 UNK        -0.4209 
     25 C          23.8368    0.8794   -5.2628 C.2       3 UNK         0.4942 
     26 O          24.8422    1.4224   -5.7249 O.2       3 UNK        -0.5208 
     27 CA         23.4127    1.1908   -3.8149 C.3       3 UNK         0.0250 
     28 CB         22.2301    0.3345   -3.3036 C.3       3 UNK        -0.1990 
     29 N          24.5226    1.1091   -2.8599 N.am      3 UNK        -0.4232 
     30 C          25.3567    0.0772   -2.6649 C.2       2 UNK         0.4993 
     31 O          25.4208   -0.9232   -3.3904 O.2       2 UNK        -0.5286 
     32 CA         26.2538    0.1784   -1.4228 C.3       2 UNK         0.0209 
     33 CB         25.4065    0.3408   -0.1392 C.3       2 UNK        -0.1931 
     34 N          27.0623   -1.0336   -1.3381 N.am      2 UNK        -0.4546 
     35 C          28.0936   -1.2503   -0.5134 C.2       1 UNK         0.5154 
     36 O          28.5383   -0.3899    0.2485 O.2       1 UNK        -0.5181 
     37 C          27.5999   -1.3816   -6.7227 C.2       5 UNK         0.5014 
     38 O          28.4313   -1.4275   -7.6324 O.2       5 UNK        -0.5248 
     39 N          27.5545   -0.4222   -5.7870 N.am      6 UNK        -0.4434 
     40 CA         28.4951    0.6914   -5.7194 C.3       6 UNK         0.0363 
     41 CB         28.3169    1.4643   -4.4051 C.3       6 UNK        -0.1936 
     42 C          28.3958    1.6235   -6.9326 C.2       6 UNK         0.5081 
     43 O          29.4341    2.0259   -7.4549 O.2       6 UNK        -0.5248 
     44 N          27.1662    1.9174   -7.3759 N.am      7 UNK        -0.4718 
     45 CA         26.8848    2.7435   -8.5504 C.3       7 UNK         0.0273 
     46 CB         25.3782    3.0344   -8.6307 C.3       7 UNK        -0.1935 
     47 C          27.3903    2.1249   -9.8640 C.2       7 UNK         0.5018 
     48 O          28.0018    2.8374  -10.6605 O.2       7 UNK        -0.5186 
     49 N          27.1393    0.8226  -10.0683 N.am      8 UNK        -0.4240 
     50 CA         27.5503    0.0911  -11.2699 C.3       8 UNK         0.0235 
     51 CB         26.8345   -1.2677  -11.3322 C.3       8 UNK        -0.2000 
     52 C          29.0703   -0.1018  -11.3643 C.2       8 UNK         0.4941 
     53 O          29.6353    0.0888  -12.4421 O.2       8 UNK        -0.5273 
     54 N          29.7034   -0.4809  -10.2461 N.am      9 UNK        -0.4262 
     55 CA         31.1415   -0.7538  -10.1849 C.3       9 UNK         0.0264 
     56 CB         31.4084   -1.7153   -9.0203 C.3       9 UNK        -0.1955 
     57 C          32.0108    0.5054  -10.0305 C.2       9 UNK         0.5031 
     58 O          33.2218    0.4096  -10.2346 O.2       9 UNK        -0.5390 
     59 N          31.4015    1.6335   -9.6323 N.am      10 UNK        -0.4204 
     60 CA         32.0463    2.8703   -9.1701 C.3       10 UNK         0.0237 
     61 CB         32.8492    3.5530  -10.2985 C.3       10 UNK        -0.1985 
     62 C          32.8677    2.6215   -7.8880 C.2       10 UNK         0.4970 
     63 O          34.0130    3.0648   -7.7839 O.2       10 UNK        -0.4914 
     64 N          32.2597    1.8866   -6.9467 N.am      11 UNK        -0.4285 
     65 CA         32.8571    1.4886   -5.6623 C.3       11 UNK         0.1007 
     66 C          32.8893    2.6244   -4.5967 C.2       11 UNK         0.5703 
     67 N          32.1633    3.7224   -4.7765 N.am      11 UNK        -0.7361 
     68 O          33.5943    2.5155   -3.5969 O.2       11 UNK        -0.4986 
     69 C69        32.1985    0.1898   -5.1110 C.3       12 UNK        -0.0947 
     70 S70        33.3906   -0.9097   -4.2783 S.3       12 UNK        -0.2240 
     71 C71        33.2778   -2.4352   -5.2714 C.3       12 UNK         0.0194 
     72 H72        25.2655   -4.8328   -2.2736 H         1 UNK         0.0906 
     73 H73        26.8543   -5.3270   -2.8595 H         1 UNK         0.0906 
     74 H74        26.1091   -6.1836   -1.5115 H         1 UNK         0.0906 
     75 H75        28.3923   -3.8003   -2.2567 H         1 UNK         0.3140 
     76 H76        28.7129   -2.9962    0.5150 H         1 UNK         0.1085 
     77 H77        30.3130   -2.3599   -2.0188 H         1 UNK         0.0836 
     78 H78        30.7243   -1.7408   -0.4532 H         1 UNK         0.0836 
     79 H79        31.5541   -6.0838   -1.7546 H         1 UNK         0.0731 
     80 H80        29.8578   -5.6965   -1.6639 H         1 UNK         0.0731 
     81 H81        32.7974   -3.6514   -2.8905 H         1 UNK         0.1312 
     82 H82        31.1328   -3.1767   -6.8030 H         1 UNK         0.1406 
     83 H83        29.1407   -5.6382   -3.9224 H         1 UNK         0.1631 
     84 H84        29.3220   -5.7046   -7.0328 H         1 UNK         0.0717 
     85 H85        28.9599   -4.0296   -7.3314 H         1 UNK         0.0717 
     86 H86        25.8281   -3.5454   -4.8560 H         1 UNK         0.0934 
     87 H87        27.4669   -3.0181   -4.7120 H         1 UNK         0.0934 
     88 H88        26.5254   -3.0157   -7.5640 H         1 UNK         0.0739 
     89 H89        24.6613   -1.8804   -5.7193 H         1 UNK         0.3093 
     90 H90        23.2486    0.4936   -7.9511 H         1 UNK         0.0818 
     91 H91        21.1828   -0.8446   -7.7005 H         1 UNK         0.0819 
     92 H92        22.2805   -1.6471   -8.8094 H         1 UNK         0.0819 
     93 H93        22.1140   -2.2442   -7.1643 H         1 UNK         0.0819 
     94 H94        22.2723   -0.3799   -5.4762 H         1 UNK         0.3041 
     95 H95        23.0886    2.2325   -3.8199 H         1 UNK         0.0784 
     96 H96        21.3367    0.4756   -3.9135 H         1 UNK         0.0793 
     97 H97        22.4699   -0.7299   -3.2927 H         1 UNK         0.0793 
     98 H98        21.9584    0.6158   -2.2859 H         1 UNK         0.0793 
     99 H99        24.6050    1.9026   -2.2402 H         1 UNK         0.3024 
    100 H100       26.9156    1.0387   -1.5429 H         1 UNK         0.1171 
    101 H101       24.7238   -0.4992   -0.0033 H         1 UNK         0.0786 
    102 H102       24.8052    1.2500   -0.1627 H         1 UNK         0.0786 
    103 H103       26.0294    0.4071    0.7525 H         1 UNK         0.0786 
    104 H104       26.7649   -1.7687   -1.9678 H         1 UNK         0.2977 
    105 H105       26.8034   -0.4396   -5.1071 H         1 UNK         0.3127 
    106 H106       29.4940    0.2590   -5.7277 H         1 UNK         0.0770 
    107 H107       28.4862    0.8195   -3.5429 H         1 UNK         0.0814 
    108 H108       27.3173    1.8927   -4.3215 H         1 UNK         0.0814 
    109 H109       29.0312    2.2863   -4.3377 H         1 UNK         0.0814 
    110 H110       26.3636    1.5784   -6.8494 H         1 UNK         0.2983 
    111 H111       27.4061    3.6936   -8.4140 H         1 UNK         0.0947 
    112 H112       25.1507    3.6875   -9.4743 H         1 UNK         0.0806 
    113 H113       25.0212    3.5320   -7.7287 H         1 UNK         0.0806 
    114 H114       24.7989    2.1204   -8.7597 H         1 UNK         0.0806 
    115 H115       26.5972    0.3027   -9.3819 H         1 UNK         0.3000 
    116 H116       27.2379    0.6745  -12.1389 H         1 UNK         0.0850 
    117 H117       27.1251   -1.8240  -12.2243 H         1 UNK         0.0810 
    118 H118       25.7521   -1.1430  -11.3669 H         1 UNK         0.0810 
    119 H119       27.0713   -1.8886  -10.4667 H         1 UNK         0.0810 
    120 H120       29.1652   -0.6520   -9.4005 H         1 UNK         0.3040 
    121 H121       31.4472   -1.2510  -11.1082 H         1 UNK         0.0766 
    122 H122       32.4633   -1.9882   -8.9661 H         1 UNK         0.0812 
    123 H123       30.8375   -2.6374   -9.1312 H         1 UNK         0.0812 
    124 H124       31.1369   -1.2600   -8.0679 H         1 UNK         0.0812 
    125 H125       30.4052    1.5858   -9.4565 H         1 UNK         0.3205 
    126 H126       31.2389    3.5484   -8.8896 H         1 UNK         0.0754 
    127 H127       33.2081    4.5326   -9.9808 H         1 UNK         0.0769 
    128 H128       32.2338    3.7049  -11.1852 H         1 UNK         0.0769 
    129 H129       33.7224    2.9696  -10.5918 H         1 UNK         0.0769 
    130 H130       31.2812    1.6571   -7.0906 H         1 UNK         0.2981 
    131 H131       33.9029    1.2622   -5.8792 H         1 UNK         0.0541 
    132 H132       31.5861    3.8266   -5.5950 H         1 UNK         0.3459 
    133 H133       32.1981    4.4545   -4.0850 H         1 UNK         0.3459 
    134 H134       31.7375   -0.3757   -5.9209 H         1 UNK         0.0612 
    135 H135       31.3918    0.4149   -4.4113 H         1 UNK         0.0612 
    136 H136       33.2580   -2.1816   -6.3324 H         1 UNK         0.0624 
    137 H137       34.1888   -3.0145   -5.1157 H         1 UNK         0.0624 
@<TRIPOS>BOND
     1    1    2 1    
     2    1   72 1    
     3    1   73 1    
     4    1   74 1    
     5    2    3 2    
     6    2    4 am   BACKBONE|DICT|INTERRES
     7    4    5 1    
     8    4   75 1    
     9    5    6 1    
    10    5   35 1    
    11    5   76 1    
    12    6    7 1    
    13    6   77 1    
    14    6   78 1    
    15    7    8 1    
    16    8    9 1    
    17    8   79 1    
    18    8   80 1    
    19    9   10 ar   
    20    9   14 ar   
    21   10   11 ar   
    22   10   81 1    
    23   11   12 ar   
    24   11   71 1    
    25   12   13 ar   
    26   12   82 1    
    27   13   14 ar   
    28   13   15 1    
    29   14   83 1    
    30   15   16 1    
    31   15   84 1    
    32   15   85 1    
    33   16   17 1    
    34   17   18 1    
    35   17   86 1    
    36   17   87 1    
    37   18   19 1    
    38   18   37 1    
    39   18   88 1    
    40   19   20 am   BACKBONE|DICT|INTERRES
    41   19   89 1    
    42   20   21 2    
    43   20   22 1    
    44   22   23 1    
    45   22   24 1    
    46   22   90 1    
    47   23   91 1    
    48   23   92 1    
    49   23   93 1    
    50   24   25 am   BACKBONE|DICT|INTERRES
    51   24   94 1    
    52   25   26 2    
    53   25   27 1    
    54   27   28 1    
    55   27   29 1    
    56   27   95 1    
    57   28   96 1    
    58   28   97 1    
    59   28   98 1    
    60   29   30 am   BACKBONE|DICT|INTERRES
    61   29   99 1    
    62   30   31 2    
    63   30   32 1    
    64   32   33 1    
    65   32   34 1    
    66   32  100 1    
    67   33  101 1    
    68   33  102 1    
    69   33  103 1    
    70   34   35 am   BACKBONE|DICT|INTERRES
    71   34  104 1    
    72   35   36 2    
    73   37   38 2    
    74   37   39 am   BACKBONE|DICT|INTERRES
    75   39   40 1    
    76   39  105 1    
    77   40   41 1    
    78   40   42 1    
    79   40  106 1    
    80   41  107 1    
    81   41  108 1    
    82   41  109 1    
    83   42   43 2    
    84   42   44 am   BACKBONE|DICT|INTERRES
    85   44   45 1    
    86   44  110 1    
    87   45   46 1    
    88   45   47 1    
    89   45  111 1    
    90   46  112 1    
    91   46  113 1    
    92   46  114 1    
    93   47   48 2    
    94   47   49 am   BACKBONE|DICT|INTERRES
    95   49   50 1    
    96   49  115 1    
    97   50   51 1    
    98   50   52 1    
    99   50  116 1    
   100   51  117 1    
   101   51  118 1    
   102   51  119 1    
   103   52   53 2    
   104   52   54 am   BACKBONE|DICT|INTERRES
   105   54   55 1    
   106   54  120 1    
   107   55   56 1    
   108   55   57 1    
   109   55  121 1    
   110   56  122 1    
   111   56  123 1    
   112   56  124 1    
   113   57   58 2    
   114   57   59 am   BACKBONE|DICT|INTERRES
   115   59   60 1    
   116   59  125 1    
   117   60   61 1    
   118   60   62 1    
   119   60  126 1    
   120   61  127 1    
   121   61  128 1    
   122   61  129 1    
   123   62   63 2    
   124   62   64 am   BACKBONE|DICT|INTERRES
   125   64   65 1    
   126   64  130 1    
   127   65   66 1    
   128   65   69 1    
   129   65  131 1    
   130   66   67 am   BACKBONE|DICT|INTERRES
   131   66   68 2    
   132   67  132 1    
   133   67  133 1    
   134   69   70 1    
   135   69  134 1    
   136   69  135 1    
   137   70   71 1    
   138   71  136 1    
   139   71  137 1    
@<TRIPOS>SUBSTRUCTURE
     1 UNK         1 GROUP             0       ****    0 ROOT    
