@<TRIPOS>MOLECULE
3R137
137   139    1
SMALL
USER_CHARGES


@<TRIPOS>ATOM
      1 CA         26.7186   -8.1004   -1.0618 C.3       0 UNK        -0.2020 
      2 C          26.5482   -6.7831   -0.3204 C.2       0 UNK         0.4855 
      3 O          25.7319   -6.6979    0.5974 O.2       0 UNK        -0.5197 
      4 N          27.3116   -5.7543   -0.7113 N.am      1 UNK        -0.4892 
      5 CA         27.2898   -4.4146   -0.1050 C.3       1 UNK         0.0835 
      6 C6         28.5591   -3.6026   -0.4611 C.3       12 UNK        -0.0855 
      7 S7         30.0934   -4.4047    0.1207 S.3       12 UNK        -0.2931 
      8 C8         31.2518   -2.9978    0.1474 C.3       12 UNK         0.0378 
      9 C9         31.5449   -2.4924   -1.2576 C.ar      12 UNK        -0.0802 
     10 C10        32.5586   -3.0754   -2.0218 C.ar      12 UNK        -0.0944 
     11 C11        32.8119   -2.6484   -3.3302 C.ar      12 UNK        -0.0787 
     12 C12        32.0190   -1.6247   -3.8736 C.ar      12 UNK        -0.0862 
     13 C13        31.0140   -1.0211   -3.1104 C.ar      12 UNK        -0.0733 
     14 C14        30.7920   -1.4501   -1.8003 C.ar      12 UNK        -0.0832 
     15 C15        30.1538    0.0928   -3.6882 C.3       12 UNK         0.0240 
     16 S16        28.4363   -0.4619   -3.9230 S.3       12 UNK        -0.2522 
     17 C17        28.5702   -1.4091   -5.4827 C.3       12 UNK        -0.0967 
     18 CA         27.7205   -0.8431   -6.6503 C.3       5 UNK         0.0660 
     19 N          26.2811   -0.9904   -6.4110 N.am      5 UNK        -0.4015 
     20 C          25.3280   -0.7036   -7.3135 C.2       4 UNK         0.4946 
     21 O          25.5712   -0.3694   -8.4730 O.2       4 UNK        -0.5353 
     22 CA         23.8581   -0.7329   -6.8517 C.3       4 UNK         0.0277 
     23 CB         23.1924   -2.0515   -7.2750 C.3       4 UNK        -0.1981 
     24 N          23.6728   -0.5397   -5.4117 N.am      4 UNK        -0.4209 
     25 C          24.1233    0.4980   -4.6916 C.2       3 UNK         0.4942 
     26 O          24.6815    1.4779   -5.1871 O.2       3 UNK        -0.5208 
     27 CA         23.9826    0.4081   -3.1599 C.3       3 UNK         0.0250 
     28 CB         22.8632    1.3422   -2.6726 C.3       3 UNK        -0.1990 
     29 N          23.7531   -0.9424   -2.6214 N.am      3 UNK        -0.4232 
     30 C          24.5590   -2.0027   -2.7837 C.2       2 UNK         0.4993 
     31 O          25.5531   -2.0083   -3.5128 O.2       2 UNK        -0.5286 
     32 CA         24.1484   -3.2968   -2.0653 C.3       2 UNK         0.0209 
     33 CB         23.3944   -4.2285   -3.0286 C.3       2 UNK        -0.1931 
     34 N          25.3226   -3.9963   -1.5422 N.am      2 UNK        -0.4546 
     35 C          26.0210   -3.6088   -0.4651 C.2       1 UNK         0.5154 
     36 O          25.6960   -2.6536    0.2429 O.2       1 UNK        -0.5181 
     37 C          28.1195    0.6056   -7.0140 C.2       5 UNK         0.5014 
     38 O          28.9726    0.7949   -7.8808 O.2       5 UNK        -0.5248 
     39 N          27.4785    1.5972   -6.3757 N.am      6 UNK        -0.4434 
     40 CA         27.7052    3.0201   -6.6241 C.3       6 UNK         0.0363 
     41 CB         27.2035    3.8420   -5.4268 C.3       6 UNK        -0.1936 
     42 C          27.0388    3.4868   -7.9255 C.2       6 UNK         0.5081 
     43 O          27.6063    4.3290   -8.6196 O.2       6 UNK        -0.5248 
     44 N          25.8740    2.9095   -8.2564 N.am      7 UNK        -0.4718 
     45 CA         25.1642    3.1429   -9.5186 C.3       7 UNK         0.0273 
     46 CB         23.7462    2.5556   -9.4366 C.3       7 UNK        -0.1935 
     47 C          25.9277    2.5718  -10.7260 C.2       7 UNK         0.5018 
     48 O          25.9970    3.2265  -11.7664 O.2       7 UNK        -0.5186 
     49 N          26.5194    1.3821  -10.5489 N.am      8 UNK        -0.4240 
     50 CA         27.4163    0.7380  -11.5117 C.3       8 UNK         0.0235 
     51 CB         27.5619   -0.7456  -11.1329 C.3       8 UNK        -0.2000 
     52 C          28.8066    1.3977  -11.5983 C.2       8 UNK         0.4941 
     53 O          29.5214    1.1446  -12.5688 O.2       8 UNK        -0.5273 
     54 N          29.1707    2.1969  -10.5825 N.am      9 UNK        -0.4262 
     55 CA         30.4815    2.8160  -10.3473 C.3       9 UNK         0.0264 
     56 CB         30.7983    3.8746  -11.4247 C.3       9 UNK        -0.1955 
     57 C          31.5975    1.7656  -10.1752 C.2       9 UNK         0.5031 
     58 O          32.6978    1.9298  -10.7083 O.2       9 UNK        -0.5390 
     59 N          31.2795    0.6894   -9.4464 N.am      10 UNK        -0.4204 
     60 CA         32.1711   -0.4330   -9.1740 C.3       10 UNK         0.0237 
     61 CB         31.3226   -1.6606   -8.8030 C.3       10 UNK        -0.1985 
     62 C          33.1565   -0.1024   -8.0445 C.2       10 UNK         0.4970 
     63 O          32.8198    0.6589   -7.1343 O.2       10 UNK        -0.4914 
     64 N          34.3355   -0.7316   -8.1119 N.am      11 UNK        -0.4285 
     65 CA         35.4085   -0.6904   -7.1006 C.3       11 UNK         0.1007 
     66 C          36.1439    0.6790   -6.9746 C.2       11 UNK         0.5703 
     67 N          35.9685    1.6142   -7.9010 N.am      11 UNK        -0.7361 
     68 O          36.9165    0.8877   -6.0418 O.2       11 UNK        -0.4986 
     69 C69        34.9731   -1.2629   -5.7184 C.3       12 UNK        -0.0947 
     70 S70        34.1528   -2.8909   -5.8475 S.3       12 UNK        -0.2240 
     71 C71        33.9481   -3.3397   -4.0911 C.3       12 UNK         0.0194 
     72 H72        25.7772   -8.3950   -1.5249 H         1 UNK         0.0906 
     73 H73        27.0169   -8.8854   -0.3674 H         1 UNK         0.0906 
     74 H74        27.4752   -8.0346   -1.8435 H         1 UNK         0.0906 
     75 H75        27.9887   -5.8859   -1.4499 H         1 UNK         0.3140 
     76 H76        27.2704   -4.5424    0.9800 H         1 UNK         0.1085 
     77 H77        28.5051   -2.6084   -0.0127 H         1 UNK         0.0836 
     78 H78        28.6290   -3.4495   -1.5403 H         1 UNK         0.0836 
     79 H79        30.8462   -2.1975    0.7686 H         1 UNK         0.0731 
     80 H80        32.1797   -3.3131    0.6271 H         1 UNK         0.0731 
     81 H81        33.1476   -3.8774   -1.5972 H         1 UNK         0.1312 
     82 H82        32.1722   -1.2858   -4.8878 H         1 UNK         0.1406 
     83 H83        30.0080   -0.9888   -1.2152 H         1 UNK         0.1631 
     84 H84        30.5590    0.4628   -4.6320 H         1 UNK         0.0717 
     85 H85        30.1582    0.9400   -3.0011 H         1 UNK         0.0717 
     86 H86        29.6172   -1.4718   -5.7821 H         1 UNK         0.0934 
     87 H87        28.2708   -2.4375   -5.2742 H         1 UNK         0.0934 
     88 H88        27.9431   -1.4506   -7.5302 H         1 UNK         0.0739 
     89 H89        26.0092   -1.2592   -5.4702 H         1 UNK         0.3093 
     90 H90        23.3452    0.0887   -7.3549 H         1 UNK         0.0818 
     91 H91        23.2934   -2.2119   -8.3495 H         1 UNK         0.0819 
     92 H92        23.6417   -2.9098   -6.7736 H         1 UNK         0.0819 
     93 H93        22.1257   -2.0495   -7.0497 H         1 UNK         0.0819 
     94 H94        23.2364   -1.2980   -4.9090 H         1 UNK         0.3041 
     95 H95        24.9275    0.7612   -2.7415 H         1 UNK         0.0784 
     96 H96        23.0206    2.3612   -3.0298 H         1 UNK         0.0793 
     97 H97        21.8844    1.0196   -3.0297 H         1 UNK         0.0793 
     98 H98        22.8275    1.3870   -1.5839 H         1 UNK         0.0793 
     99 H99        22.9413   -1.0452   -2.0287 H         1 UNK         0.3024 
    100 H100       23.4916   -3.0503   -1.2276 H         1 UNK         0.1171 
    101 H101       22.4913   -3.7503   -3.4103 H         1 UNK         0.0786 
    102 H102       24.0070   -4.5021   -3.8890 H         1 UNK         0.0786 
    103 H103       23.0859   -5.1481   -2.5307 H         1 UNK         0.0786 
    104 H104       25.6770   -4.7696   -2.0853 H         1 UNK         0.2977 
    105 H105       26.7481    1.3632   -5.7122 H         1 UNK         0.3127 
    106 H106       28.7808    3.1853   -6.7208 H         1 UNK         0.0770 
    107 H107       26.1266    3.7418   -5.2873 H         1 UNK         0.0814 
    108 H108       27.4153    4.9026   -5.5684 H         1 UNK         0.0814 
    109 H109       27.6918    3.5341   -4.5021 H         1 UNK         0.0814 
    110 H110       25.4809    2.2255   -7.6244 H         1 UNK         0.2983 
    111 H111       25.0784    4.2227   -9.6607 H         1 UNK         0.0947 
    112 H112       23.1776    2.7922  -10.3369 H         1 UNK         0.0806 
    113 H113       23.1943    2.9624   -8.5889 H         1 UNK         0.0806 
    114 H114       23.7604    1.4700   -9.3405 H         1 UNK         0.0806 
    115 H115       26.3306    0.8696   -9.6896 H         1 UNK         0.3000 
    116 H116       26.9600    0.7997  -12.5019 H         1 UNK         0.0850 
    117 H117       28.1933   -1.2739  -11.8487 H         1 UNK         0.0810 
    118 H118       26.5948   -1.2488  -11.1195 H         1 UNK         0.0810 
    119 H119       28.0142   -0.8654  -10.1474 H         1 UNK         0.0810 
    120 H120       28.5047    2.3111   -9.8305 H         1 UNK         0.3040 
    121 H121       30.4030    3.3337   -9.3899 H         1 UNK         0.0766 
    122 H122       30.9457    3.4239  -12.4065 H         1 UNK         0.0812 
    123 H123       31.7098    4.4204  -11.1784 H         1 UNK         0.0812 
    124 H124       29.9947    4.6065  -11.5077 H         1 UNK         0.0812 
    125 H125       30.3853    0.6882   -8.9543 H         1 UNK         0.3205 
    126 H126       32.7326   -0.6595  -10.0832 H         1 UNK         0.0754 
    127 H127       31.9515   -2.5336   -8.6227 H         1 UNK         0.0769 
    128 H128       30.6278   -1.9193   -9.6024 H         1 UNK         0.0769 
    129 H129       30.7412   -1.4863   -7.8978 H         1 UNK         0.0769 
    130 H130       34.5181   -1.3320   -8.9027 H         1 UNK         0.2981 
    131 H131       36.1734   -1.3644   -7.4874 H         1 UNK         0.0541 
    132 H132       36.4587    2.4906   -7.8165 H         1 UNK         0.3459 
    133 H133       35.3390    1.4585   -8.6722 H         1 UNK         0.3459 
    134 H134       34.3109   -0.5631   -5.2085 H         1 UNK         0.0612 
    135 H135       35.8436   -1.3804   -5.0709 H         1 UNK         0.0612 
    136 H136       33.7804   -4.4169   -4.0504 H         1 UNK         0.0624 
    137 H137       34.8889   -3.1573   -3.5698 H         1 UNK         0.0624 
@<TRIPOS>BOND
     1    1    2 1    
     2    1   72 1    
     3    1   73 1    
     4    1   74 1    
     5    2    3 2    
     6    2    4 am   BACKBONE|DICT|INTERRES
     7    4    5 1    
     8    4   75 1    
     9    5    6 1    
    10    5   35 1    
    11    5   76 1    
    12    6    7 1    
    13    6   77 1    
    14    6   78 1    
    15    7    8 1    
    16    8    9 1    
    17    8   79 1    
    18    8   80 1    
    19    9   10 ar   
    20    9   14 ar   
    21   10   11 ar   
    22   10   81 1    
    23   11   12 ar   
    24   11   71 1    
    25   12   13 ar   
    26   12   82 1    
    27   13   14 ar   
    28   13   15 1    
    29   14   83 1    
    30   15   16 1    
    31   15   84 1    
    32   15   85 1    
    33   16   17 1    
    34   17   18 1    
    35   17   86 1    
    36   17   87 1    
    37   18   19 1    
    38   18   37 1    
    39   18   88 1    
    40   19   20 am   BACKBONE|DICT|INTERRES
    41   19   89 1    
    42   20   21 2    
    43   20   22 1    
    44   22   23 1    
    45   22   24 1    
    46   22   90 1    
    47   23   91 1    
    48   23   92 1    
    49   23   93 1    
    50   24   25 am   BACKBONE|DICT|INTERRES
    51   24   94 1    
    52   25   26 2    
    53   25   27 1    
    54   27   28 1    
    55   27   29 1    
    56   27   95 1    
    57   28   96 1    
    58   28   97 1    
    59   28   98 1    
    60   29   30 am   BACKBONE|DICT|INTERRES
    61   29   99 1    
    62   30   31 2    
    63   30   32 1    
    64   32   33 1    
    65   32   34 1    
    66   32  100 1    
    67   33  101 1    
    68   33  102 1    
    69   33  103 1    
    70   34   35 am   BACKBONE|DICT|INTERRES
    71   34  104 1    
    72   35   36 2    
    73   37   38 2    
    74   37   39 am   BACKBONE|DICT|INTERRES
    75   39   40 1    
    76   39  105 1    
    77   40   41 1    
    78   40   42 1    
    79   40  106 1    
    80   41  107 1    
    81   41  108 1    
    82   41  109 1    
    83   42   43 2    
    84   42   44 am   BACKBONE|DICT|INTERRES
    85   44   45 1    
    86   44  110 1    
    87   45   46 1    
    88   45   47 1    
    89   45  111 1    
    90   46  112 1    
    91   46  113 1    
    92   46  114 1    
    93   47   48 2    
    94   47   49 am   BACKBONE|DICT|INTERRES
    95   49   50 1    
    96   49  115 1    
    97   50   51 1    
    98   50   52 1    
    99   50  116 1    
   100   51  117 1    
   101   51  118 1    
   102   51  119 1    
   103   52   53 2    
   104   52   54 am   BACKBONE|DICT|INTERRES
   105   54   55 1    
   106   54  120 1    
   107   55   56 1    
   108   55   57 1    
   109   55  121 1    
   110   56  122 1    
   111   56  123 1    
   112   56  124 1    
   113   57   58 2    
   114   57   59 am   BACKBONE|DICT|INTERRES
   115   59   60 1    
   116   59  125 1    
   117   60   61 1    
   118   60   62 1    
   119   60  126 1    
   120   61  127 1    
   121   61  128 1    
   122   61  129 1    
   123   62   63 2    
   124   62   64 am   BACKBONE|DICT|INTERRES
   125   64   65 1    
   126   64  130 1    
   127   65   66 1    
   128   65   69 1    
   129   65  131 1    
   130   66   67 am   BACKBONE|DICT|INTERRES
   131   66   68 2    
   132   67  132 1    
   133   67  133 1    
   134   69   70 1    
   135   69  134 1    
   136   69  135 1    
   137   70   71 1    
   138   71  136 1    
   139   71  137 1    
@<TRIPOS>SUBSTRUCTURE
     1 UNK         1 GROUP             0       ****    0 ROOT    
