@<TRIPOS>MOLECULE
3R137
137   139    1
SMALL
USER_CHARGES


@<TRIPOS>ATOM
      1 CA         29.8759   -0.7557    1.4450 C.3       0 UNK        -0.2020 
      2 C          29.2881   -1.5015    0.2564 C.2       0 UNK         0.4855 
      3 O          29.0659   -0.8978   -0.7928 O.2       0 UNK        -0.5197 
      4 N          29.0467   -2.8088    0.4123 N.am      1 UNK        -0.4892 
      5 CA         28.4795   -3.6865   -0.6180 C.3       1 UNK         0.0835 
      6 C6         28.6770   -5.1907   -0.2807 C.3       12 UNK        -0.0855 
      7 S7         30.3875   -5.6312    0.1929 S.3       12 UNK        -0.2931 
      8 C8         31.1256   -6.1131   -1.4031 C.3       12 UNK         0.0378 
      9 C9         31.1602   -4.9537   -2.3893 C.ar      12 UNK        -0.0802 
     10 C10        31.8624   -3.7852   -2.0782 C.ar      12 UNK        -0.0944 
     11 C11        31.8582   -2.6889   -2.9455 C.ar      12 UNK        -0.0787 
     12 C12        31.1659   -2.7941   -4.1592 C.ar      12 UNK        -0.0862 
     13 C13        30.4699   -3.9612   -4.4916 C.ar      12 UNK        -0.0733 
     14 C14        30.4688   -5.0374   -3.6006 C.ar      12 UNK        -0.0832 
     15 C15        29.7114   -4.0645   -5.8081 C.3       12 UNK         0.0240 
     16 S16        28.0176   -3.4113   -5.6581 S.3       12 UNK        -0.2522 
     17 C17        28.3078   -1.6143   -5.7739 C.3       12 UNK        -0.0967 
     18 CA         27.4146   -0.9388   -6.8391 C.3       5 UNK         0.0660 
     19 N          25.9817   -1.0184   -6.5290 N.am      5 UNK        -0.4015 
     20 C          25.0042   -0.6228   -7.3625 C.2       4 UNK         0.4946 
     21 O          25.2182   -0.1181   -8.4654 O.2       4 UNK        -0.5353 
     22 CA         23.5447   -0.7828   -6.9025 C.3       4 UNK         0.0277 
     23 CB         22.9534   -2.0864   -7.4618 C.3       4 UNK        -0.1981 
     24 N          23.3740   -0.7585   -5.4498 N.am      4 UNK        -0.4209 
     25 C          23.6234    0.2966   -4.6609 C.2       3 UNK         0.4942 
     26 O          23.9770    1.3987   -5.0809 O.2       3 UNK        -0.5208 
     27 CA         23.5042    0.0655   -3.1421 C.3       3 UNK         0.0250 
     28 CB         22.1003    0.4499   -2.6481 C.3       3 UNK        -0.1990 
     29 N          23.8127   -1.3097   -2.7216 N.am      3 UNK        -0.4232 
     30 C          24.9889   -1.9190   -2.9284 C.2       2 UNK         0.4993 
     31 O          25.9280   -1.3953   -3.5299 O.2       2 UNK        -0.5286 
     32 CA         25.1123   -3.3751   -2.4603 C.3       2 UNK         0.0209 
     33 CB         24.7084   -4.3345   -3.5924 C.3       2 UNK        -0.1931 
     34 N          26.4907   -3.6617   -2.0590 N.am      2 UNK        -0.4546 
     35 C          26.9835   -3.3838   -0.8458 C.2       1 UNK         0.5154 
     36 O          26.2942   -2.9532    0.0843 O.2       1 UNK        -0.5181 
     37 C          27.8852    0.5067   -7.0750 C.2       5 UNK         0.5014 
     38 O          28.7365    0.7205   -7.9402 O.2       5 UNK        -0.5248 
     39 N          27.3091    1.4664   -6.3356 N.am      6 UNK        -0.4434 
     40 CA         27.5809    2.9005   -6.4603 C.3       6 UNK         0.0363 
     41 CB         26.8479    3.6569   -5.3414 C.3       6 UNK        -0.1936 
     42 C          27.2035    3.4753   -7.8364 C.2       6 UNK         0.5081 
     43 O          27.8819    4.3832   -8.3161 O.2       6 UNK        -0.5248 
     44 N          26.1439    2.9298   -8.4473 N.am      7 UNK        -0.4718 
     45 CA         25.7094    3.2744   -9.7993 C.3       7 UNK         0.0273 
     46 CB         24.1925    3.0523   -9.9194 C.3       7 UNK        -0.1935 
     47 C          26.4621    2.4564  -10.8592 C.2       7 UNK         0.5018 
     48 O          26.8377    3.0116  -11.8922 O.2       7 UNK        -0.5186 
     49 N          26.6454    1.1540  -10.5983 N.am      8 UNK        -0.4240 
     50 CA         27.2181    0.1943  -11.5421 C.3       8 UNK         0.0235 
     51 CB         26.9323   -1.2369  -11.0596 C.3       8 UNK        -0.2000 
     52 C          28.7207    0.3781  -11.8053 C.2       8 UNK         0.4941 
     53 O          29.1378    0.2176  -12.9539 O.2       8 UNK        -0.5273 
     54 N          29.5099    0.6707  -10.7608 N.am      9 UNK        -0.4262 
     55 CA         30.9753    0.7083  -10.8579 C.3       9 UNK         0.0264 
     56 CB         31.5385   -0.7169  -10.6920 C.3       9 UNK        -0.1955 
     57 C          31.6652    1.6632   -9.8729 C.2       9 UNK         0.5031 
     58 O          32.7675    2.1179  -10.1815 O.2       9 UNK        -0.5390 
     59 N          31.0468    1.9254   -8.7116 N.am      10 UNK        -0.4204 
     60 CA         31.6238    2.5996   -7.5409 C.3       10 UNK         0.0237 
     61 CB         31.9775    4.0727   -7.8390 C.3       10 UNK        -0.1985 
     62 C          32.7844    1.7861   -6.9342 C.2       10 UNK         0.4970 
     63 O          33.8492    2.3375   -6.6485 O.2       10 UNK        -0.4914 
     64 N          32.5329    0.4811   -6.7539 N.am      11 UNK        -0.4285 
     65 CA         33.4680   -0.5324   -6.2365 C.3       11 UNK         0.1007 
     66 C          34.6598   -0.8013   -7.2068 C.2       11 UNK         0.5703 
     67 N          35.7892   -1.3033   -6.7232 N.am      11 UNK        -0.7361 
     68 O          34.5505   -0.6166   -8.4174 O.2       11 UNK        -0.4986 
     69 C69        33.8932   -0.2834   -4.7559 C.3       12 UNK        -0.0947 
     70 S70        32.4930    0.0202   -3.6210 S.3       12 UNK        -0.2240 
     71 C71        32.5767   -1.4149   -2.4908 C.3       12 UNK         0.0194 
     72 H72        29.2041    0.0442    1.7551 H         1 UNK         0.0906 
     73 H73        30.0390   -1.4125    2.2994 H         1 UNK         0.0906 
     74 H74        30.8327   -0.3111    1.1720 H         1 UNK         0.0906 
     75 H75        29.2422   -3.2540    1.2973 H         1 UNK         0.3140 
     76 H76        28.9995   -3.4648   -1.5518 H         1 UNK         0.1085 
     77 H77        28.0316   -5.4784    0.5519 H         1 UNK         0.0836 
     78 H78        28.3716   -5.8142   -1.1233 H         1 UNK         0.0836 
     79 H79        32.1447   -6.4615   -1.2304 H         1 UNK         0.0731 
     80 H80        30.5748   -6.9625   -1.8105 H         1 UNK         0.0731 
     81 H81        32.3840   -3.7171   -1.1329 H         1 UNK         0.1312 
     82 H82        31.1471   -1.9632   -4.8445 H         1 UNK         0.1406 
     83 H83        29.9209   -5.9367   -3.8485 H         1 UNK         0.1631 
     84 H84        30.2484   -3.5459   -6.6037 H         1 UNK         0.0717 
     85 H85        29.6526   -5.1084   -6.1201 H         1 UNK         0.0717 
     86 H86        28.1627   -1.1672   -4.7890 H         1 UNK         0.0934 
     87 H87        29.3544   -1.4447   -6.0255 H         1 UNK         0.0934 
     88 H88        27.5637   -1.4714   -7.7796 H         1 UNK         0.0739 
     89 H89        25.7494   -1.3716   -5.6070 H         1 UNK         0.3093 
     90 H90        22.9813    0.0557   -7.3176 H         1 UNK         0.0818 
     91 H91        21.8929   -2.1758   -7.2257 H         1 UNK         0.0819 
     92 H92        23.0447   -2.1204   -8.5486 H         1 UNK         0.0819 
     93 H93        23.4631   -2.9654   -7.0648 H         1 UNK         0.0819 
     94 H94        23.0808   -1.6190   -5.0114 H         1 UNK         0.3041 
     95 H95        24.2290    0.7246   -2.6595 H         1 UNK         0.0784 
     96 H96        21.8558    1.4757   -2.9283 H         1 UNK         0.0793 
     97 H97        21.3304   -0.1958   -3.0725 H         1 UNK         0.0793 
     98 H98        22.0304    0.3887   -1.5619 H         1 UNK         0.0793 
     99 H99        23.0808   -1.8076   -2.2345 H         1 UNK         0.3024 
    100 H100       24.4449   -3.5362   -1.6100 H         1 UNK         0.1171 
    101 H101       24.8040   -5.3754   -3.2824 H         1 UNK         0.0786 
    102 H102       23.6692   -4.1804   -3.8856 H         1 UNK         0.0786 
    103 H103       25.3218   -4.1938   -4.4831 H         1 UNK         0.0786 
    104 H104       27.1182   -3.9542   -2.7950 H         1 UNK         0.2977 
    105 H105       26.5999    1.1973   -5.6669 H         1 UNK         0.3127 
    106 H106       28.6519    3.0511   -6.3233 H         1 UNK         0.0770 
    107 H107       25.7664    3.5331   -5.4114 H         1 UNK         0.0814 
    108 H108       27.0574    4.7263   -5.3920 H         1 UNK         0.0814 
    109 H109       27.1623    3.3126   -4.3560 H         1 UNK         0.0814 
    110 H110       25.6647    2.1626   -7.9950 H         1 UNK         0.2983 
    111 H111       25.9111    4.3318   -9.9865 H         1 UNK         0.0947 
    112 H112       23.8387    3.3135  -10.9177 H         1 UNK         0.0806 
    113 H113       23.6447    3.6723   -9.2096 H         1 UNK         0.0806 
    114 H114       23.9170    2.0126   -9.7376 H         1 UNK         0.0806 
    115 H115       26.2477    0.7678   -9.7446 H         1 UNK         0.3000 
    116 H116       26.7037    0.3304  -12.4961 H         1 UNK         0.0850 
    117 H117       27.2989   -1.9717  -11.7778 H         1 UNK         0.0810 
    118 H118       25.8627   -1.4094  -10.9370 H         1 UNK         0.0810 
    119 H119       27.4166   -1.4444  -10.1061 H         1 UNK         0.0810 
    120 H120       29.0903    0.7771   -9.8421 H         1 UNK         0.3040 
    121 H121       31.2520    1.0688  -11.8513 H         1 UNK         0.0766 
    122 H122       31.1875   -1.3793  -11.4832 H         1 UNK         0.0812 
    123 H123       31.2494   -1.1535   -9.7354 H         1 UNK         0.0812 
    124 H124       32.6291   -0.7166  -10.7332 H         1 UNK         0.0812 
    125 H125       30.1425    1.4882   -8.5323 H         1 UNK         0.3205 
    126 H126       30.8443    2.6054   -6.7798 H         1 UNK         0.0754 
    127 H127       32.2756    4.5917   -6.9273 H         1 UNK         0.0769 
    128 H128       31.1216    4.6074   -8.2514 H         1 UNK         0.0769 
    129 H129       32.8031    4.1625   -8.5452 H         1 UNK         0.0769 
    130 H130       31.6392    0.1275   -7.0575 H         1 UNK         0.2981 
    131 H131       32.9058   -1.4654   -6.2546 H         1 UNK         0.0541 
    132 H132       36.5474   -1.4968   -7.3586 H         1 UNK         0.3459 
    133 H133       35.9015   -1.4854   -5.7388 H         1 UNK         0.3459 
    134 H134       34.4621   -1.1345   -4.3803 H         1 UNK         0.0612 
    135 H135       34.5620    0.5764   -4.6933 H         1 UNK         0.0612 
    136 H136       32.1282   -1.1024   -1.5465 H         1 UNK         0.0624 
    137 H137       33.6198   -1.6426   -2.2678 H         1 UNK         0.0624 
@<TRIPOS>BOND
     1    1    2 1    
     2    1   72 1    
     3    1   73 1    
     4    1   74 1    
     5    2    3 2    
     6    2    4 am   BACKBONE|DICT|INTERRES
     7    4    5 1    
     8    4   75 1    
     9    5    6 1    
    10    5   35 1    
    11    5   76 1    
    12    6    7 1    
    13    6   77 1    
    14    6   78 1    
    15    7    8 1    
    16    8    9 1    
    17    8   79 1    
    18    8   80 1    
    19    9   10 ar   
    20    9   14 ar   
    21   10   11 ar   
    22   10   81 1    
    23   11   12 ar   
    24   11   71 1    
    25   12   13 ar   
    26   12   82 1    
    27   13   14 ar   
    28   13   15 1    
    29   14   83 1    
    30   15   16 1    
    31   15   84 1    
    32   15   85 1    
    33   16   17 1    
    34   17   18 1    
    35   17   86 1    
    36   17   87 1    
    37   18   19 1    
    38   18   37 1    
    39   18   88 1    
    40   19   20 am   BACKBONE|DICT|INTERRES
    41   19   89 1    
    42   20   21 2    
    43   20   22 1    
    44   22   23 1    
    45   22   24 1    
    46   22   90 1    
    47   23   91 1    
    48   23   92 1    
    49   23   93 1    
    50   24   25 am   BACKBONE|DICT|INTERRES
    51   24   94 1    
    52   25   26 2    
    53   25   27 1    
    54   27   28 1    
    55   27   29 1    
    56   27   95 1    
    57   28   96 1    
    58   28   97 1    
    59   28   98 1    
    60   29   30 am   BACKBONE|DICT|INTERRES
    61   29   99 1    
    62   30   31 2    
    63   30   32 1    
    64   32   33 1    
    65   32   34 1    
    66   32  100 1    
    67   33  101 1    
    68   33  102 1    
    69   33  103 1    
    70   34   35 am   BACKBONE|DICT|INTERRES
    71   34  104 1    
    72   35   36 2    
    73   37   38 2    
    74   37   39 am   BACKBONE|DICT|INTERRES
    75   39   40 1    
    76   39  105 1    
    77   40   41 1    
    78   40   42 1    
    79   40  106 1    
    80   41  107 1    
    81   41  108 1    
    82   41  109 1    
    83   42   43 2    
    84   42   44 am   BACKBONE|DICT|INTERRES
    85   44   45 1    
    86   44  110 1    
    87   45   46 1    
    88   45   47 1    
    89   45  111 1    
    90   46  112 1    
    91   46  113 1    
    92   46  114 1    
    93   47   48 2    
    94   47   49 am   BACKBONE|DICT|INTERRES
    95   49   50 1    
    96   49  115 1    
    97   50   51 1    
    98   50   52 1    
    99   50  116 1    
   100   51  117 1    
   101   51  118 1    
   102   51  119 1    
   103   52   53 2    
   104   52   54 am   BACKBONE|DICT|INTERRES
   105   54   55 1    
   106   54  120 1    
   107   55   56 1    
   108   55   57 1    
   109   55  121 1    
   110   56  122 1    
   111   56  123 1    
   112   56  124 1    
   113   57   58 2    
   114   57   59 am   BACKBONE|DICT|INTERRES
   115   59   60 1    
   116   59  125 1    
   117   60   61 1    
   118   60   62 1    
   119   60  126 1    
   120   61  127 1    
   121   61  128 1    
   122   61  129 1    
   123   62   63 2    
   124   62   64 am   BACKBONE|DICT|INTERRES
   125   64   65 1    
   126   64  130 1    
   127   65   66 1    
   128   65   69 1    
   129   65  131 1    
   130   66   67 am   BACKBONE|DICT|INTERRES
   131   66   68 2    
   132   67  132 1    
   133   67  133 1    
   134   69   70 1    
   135   69  134 1    
   136   69  135 1    
   137   70   71 1    
   138   71  136 1    
   139   71  137 1    
@<TRIPOS>SUBSTRUCTURE
     1 UNK         1 GROUP             0       ****    0 ROOT    
