@<TRIPOS>MOLECULE
3R137
137   139    1
SMALL
USER_CHARGES


@<TRIPOS>ATOM
      1 CA         24.6643   -3.4008    1.0115 C.3       0 UNK        -0.2020 
      2 C          25.2986   -3.0669   -0.3306 C.2       0 UNK         0.4855 
      3 O          24.6674   -3.2715   -1.3662 O.2       0 UNK        -0.5197 
      4 N          26.5402   -2.5610   -0.3091 N.am      1 UNK        -0.4892 
      5 CA         27.3431   -2.1526   -1.4732 C.3       1 UNK         0.0835 
      6 C6         27.7227   -3.3188   -2.4262 C.3       12 UNK        -0.0855 
      7 S7         28.6214   -4.6548   -1.5664 S.3       12 UNK        -0.2931 
      8 C8         30.3591   -4.1003   -1.7102 C.3       12 UNK         0.0378 
      9 C9         30.9092   -4.0675   -3.1361 C.ar      12 UNK        -0.0802 
     10 C10        31.8773   -3.1168   -3.4775 C.ar      12 UNK        -0.0944 
     11 C11        32.4170   -3.0706   -4.7674 C.ar      12 UNK        -0.0787 
     12 C12        31.9726   -3.9898   -5.7258 C.ar      12 UNK        -0.0862 
     13 C13        31.0003   -4.9400   -5.4033 C.ar      12 UNK        -0.0733 
     14 C14        30.4916   -4.9879   -4.1033 C.ar      12 UNK        -0.0832 
     15 C15        30.5009   -5.9236   -6.4528 C.3       12 UNK         0.0240 
     16 S16        29.3761   -5.1492   -7.6616 S.3       12 UNK        -0.2522 
     17 C17        27.9984   -4.5535   -6.6154 C.3       12 UNK        -0.0967 
     18 CA         27.4615   -3.1620   -7.0358 C.3       5 UNK         0.0660 
     19 N          26.1809   -2.8719   -6.3810 N.am      5 UNK        -0.4015 
     20 C          25.4366   -1.7708   -6.5490 C.2       4 UNK         0.4946 
     21 O          25.7956   -0.7993   -7.2175 O.2       4 UNK        -0.5353 
     22 CA         24.0639   -1.7307   -5.8627 C.3       4 UNK         0.0277 
     23 CB         23.8295   -2.8489   -4.8258 C.3       4 UNK        -0.1981 
     24 N          23.9281   -0.4308   -5.2196 N.am      4 UNK        -0.4209 
     25 C          22.8251    0.3258   -5.1855 C.2       3 UNK         0.4942 
     26 O          21.7520   -0.0109   -5.6894 O.2       3 UNK        -0.5208 
     27 CA         22.9433    1.7035   -4.4945 C.3       3 UNK         0.0250 
     28 CB         21.6457    2.1146   -3.7655 C.3       3 UNK        -0.1990 
     29 N          24.1138    1.8269   -3.6109 N.am      3 UNK        -0.4232 
     30 C          24.3681    1.1172   -2.5016 C.2       2 UNK         0.4993 
     31 O          23.5813    0.3229   -1.9824 O.2       2 UNK        -0.5286 
     32 CA         25.7529    1.3318   -1.8733 C.3       2 UNK         0.0209 
     33 CB         25.6658    2.3115   -0.6919 C.3       2 UNK        -0.1931 
     34 N          26.3395    0.0719   -1.4143 N.am      2 UNK        -0.4546 
     35 C          26.7185   -0.9439   -2.2045 C.2       1 UNK         0.5154 
     36 O          26.6249   -0.9316   -3.4368 O.2       1 UNK        -0.5181 
     37 C          28.5185   -2.0433   -6.8866 C.2       5 UNK         0.5014 
     38 O          29.1717   -1.7120   -7.8775 O.2       5 UNK        -0.5248 
     39 N          28.6345   -1.4363   -5.6939 N.am      6 UNK        -0.4434 
     40 CA         29.6140   -0.3742   -5.4367 C.3       6 UNK         0.0363 
     41 CB         29.7677   -0.1298   -3.9280 C.3       6 UNK        -0.1936 
     42 C          29.2800    0.9381   -6.1627 C.2       6 UNK         0.5081 
     43 O          30.1972    1.6823   -6.5091 O.2       6 UNK        -0.5248 
     44 N          27.9854    1.1931   -6.3938 N.am      7 UNK        -0.4718 
     45 CA         27.5047    2.3253   -7.1835 C.3       7 UNK         0.0273 
     46 CB         26.0650    2.6746   -6.7732 C.3       7 UNK        -0.1935 
     47 C          27.5946    2.0280   -8.6868 C.2       7 UNK         0.5018 
     48 O          28.0403    2.8901   -9.4430 O.2       7 UNK        -0.5186 
     49 N          27.1956    0.8113   -9.0863 N.am      8 UNK        -0.4240 
     50 CA         27.1963    0.3347  -10.4717 C.3       8 UNK         0.0235 
     51 CB         26.4938   -1.0302  -10.5494 C.3       8 UNK        -0.2000 
     52 C          28.6019    0.2604  -11.0892 C.2       8 UNK         0.4941 
     53 O          28.7917    0.7334  -12.2104 O.2       8 UNK        -0.5273 
     54 N          29.5631   -0.3063  -10.3463 N.am      9 UNK        -0.4262 
     55 CA         30.9719   -0.3797  -10.7468 C.3       9 UNK         0.0264 
     56 CB         31.6140   -1.6147  -10.0947 C.3       9 UNK        -0.1955 
     57 C          31.7639    0.8982  -10.4079 C.2       9 UNK         0.5031 
     58 O          32.9061    1.0230  -10.8512 O.2       9 UNK        -0.5390 
     59 N          31.1607    1.8096   -9.6279 N.am      10 UNK        -0.4204 
     60 CA         31.6958    3.0925   -9.1481 C.3       10 UNK         0.0237 
     61 CB         31.9604    4.0547  -10.3257 C.3       10 UNK        -0.1985 
     62 C          32.9086    2.9665   -8.2009 C.2       10 UNK         0.4970 
     63 O          33.6246    3.9487   -7.9973 O.2       10 UNK        -0.4914 
     64 N          33.1100    1.7759   -7.6267 N.am      11 UNK        -0.4285 
     65 CA         34.1424    1.4664   -6.6290 C.3       11 UNK         0.1007 
     66 C          33.7723    1.8772   -5.1749 C.2       11 UNK         0.5703 
     67 N          32.5322    2.2482   -4.8792 N.am      11 UNK        -0.7361 
     68 O          34.6366    1.8790   -4.3016 O.2       11 UNK        -0.4986 
     69 C69        34.6004   -0.0134   -6.7304 C.3       12 UNK        -0.0947 
     70 S70        33.2238   -1.2105   -6.6890 S.3       12 UNK        -0.2240 
     71 C71        33.5023   -2.0491   -5.0984 C.3       12 UNK         0.0194 
     72 H72        25.3302   -3.1814    1.8459 H         1 UNK         0.0906 
     73 H73        23.7497   -2.8240    1.1467 H         1 UNK         0.0906 
     74 H74        24.4087   -4.4593    1.0516 H         1 UNK         0.0906 
     75 H75        26.9975   -2.4436    0.5848 H         1 UNK         0.3140 
     76 H76        28.2792   -1.7690   -1.0641 H         1 UNK         0.1085 
     77 H77        26.8295   -3.7457   -2.8847 H         1 UNK         0.0836 
     78 H78        28.3394   -2.9627   -3.2513 H         1 UNK         0.0836 
     79 H79        30.4459   -3.1151   -1.2497 H         1 UNK         0.0731 
     80 H80        30.9840   -4.7710   -1.1193 H         1 UNK         0.0731 
     81 H81        32.2204   -2.4136   -2.7307 H         1 UNK         0.1312 
     82 H82        32.3773   -3.9635   -6.7283 H         1 UNK         0.1406 
     83 H83        29.7568   -5.7395   -3.8499 H         1 UNK         0.1631 
     84 H84        29.9912   -6.7665   -5.9833 H         1 UNK         0.0717 
     85 H85        31.3541   -6.3443   -6.9867 H         1 UNK         0.0717 
     86 H86        27.2030   -5.2964   -6.6943 H         1 UNK         0.0934 
     87 H87        28.2836   -4.5412   -5.5645 H         1 UNK         0.0934 
     88 H88        27.2299   -3.2196   -8.1008 H         1 UNK         0.0739 
     89 H89        25.8047   -3.6030   -5.7962 H         1 UNK         0.3093 
     90 H90        23.3204   -1.8276   -6.6564 H         1 UNK         0.0818 
     91 H91        22.8565   -2.7375   -4.3466 H         1 UNK         0.0819 
     92 H92        23.8411   -3.8368   -5.2874 H         1 UNK         0.0819 
     93 H93        24.5813   -2.8318   -4.0357 H         1 UNK         0.0819 
     94 H94        24.7728   -0.0803   -4.7883 H         1 UNK         0.3041 
     95 H95        23.1026    2.4212   -5.3008 H         1 UNK         0.0784 
     96 H96        20.8096    2.1818   -4.4626 H         1 UNK         0.0793 
     97 H97        21.3664    1.3946   -2.9959 H         1 UNK         0.0793 
     98 H98        21.7485    3.0906   -3.2914 H         1 UNK         0.0793 
     99 H99        24.8159    2.4825   -3.9242 H         1 UNK         0.3024 
    100 H100       26.4248    1.7511   -2.6260 H         1 UNK         0.1171 
    101 H101       25.0217    1.9299    0.1016 H         1 UNK         0.0786 
    102 H102       25.2565    3.2717   -1.0093 H         1 UNK         0.0786 
    103 H103       26.6489    2.5063   -0.2628 H         1 UNK         0.0786 
    104 H104       26.4092   -0.0528   -0.4152 H         1 UNK         0.2977 
    105 H105       27.9860   -1.6579   -4.9481 H         1 UNK         0.3127 
    106 H106       30.5747   -0.7238   -5.8138 H         1 UNK         0.0770 
    107 H107       29.8799   -1.0613   -3.3759 H         1 UNK         0.0814 
    108 H108       28.9184    0.4146   -3.5168 H         1 UNK         0.0814 
    109 H109       30.6557    0.4694   -3.7273 H         1 UNK         0.0814 
    110 H110       27.3046    0.4891   -6.1398 H         1 UNK         0.2983 
    111 H111       28.1334    3.1950   -6.9777 H         1 UNK         0.0947 
    112 H112       25.6883    3.5153   -7.3576 H         1 UNK         0.0806 
    113 H113       26.0167    2.9649   -5.7246 H         1 UNK         0.0806 
    114 H114       25.3804    1.8400   -6.9269 H         1 UNK         0.0806 
    115 H115       26.8032    0.1808   -8.3885 H         1 UNK         0.3000 
    116 H116       26.6154    1.0479  -11.0604 H         1 UNK         0.0850 
    117 H117       26.4348   -1.3807  -11.5806 H         1 UNK         0.0810 
    118 H118       25.4748   -0.9749  -10.1657 H         1 UNK         0.0810 
    119 H119       27.0260   -1.7894   -9.9767 H         1 UNK         0.0810 
    120 H120       29.3253   -0.7176   -9.4435 H         1 UNK         0.3040 
    121 H121       31.0285   -0.5111  -11.8295 H         1 UNK         0.0766 
    122 H122       32.6667   -1.7047  -10.3659 H         1 UNK         0.0812 
    123 H123       31.1169   -2.5322  -10.4100 H         1 UNK         0.0812 
    124 H124       31.5591   -1.5676   -9.0083 H         1 UNK         0.0812 
    125 H125       30.2195    1.6027   -9.3229 H         1 UNK         0.3205 
    126 H126       30.8998    3.5309   -8.5443 H         1 UNK         0.0754 
    127 H127       32.2035    5.0560   -9.9682 H         1 UNK         0.0769 
    128 H128       31.0825    4.1462  -10.9654 H         1 UNK         0.0769 
    129 H129       32.7938    3.7196  -10.9437 H         1 UNK         0.0769 
    130 H130       32.4474    1.0368   -7.8087 H         1 UNK         0.2981 
    131 H131       35.0175    2.0713   -6.8736 H         1 UNK         0.0541 
    132 H132       31.7957    2.1980   -5.5768 H         1 UNK         0.3459 
    133 H133       32.3166    2.5321   -3.9380 H         1 UNK         0.3459 
    134 H134       35.3324   -0.2538   -5.9572 H         1 UNK         0.0612 
    135 H135       35.1212   -0.1596   -7.6778 H         1 UNK         0.0612 
    136 H136       34.4676   -2.5559   -5.1252 H         1 UNK         0.0624 
    137 H137       33.5640   -1.2906   -4.3163 H         1 UNK         0.0624 
@<TRIPOS>BOND
     1    1    2 1    
     2    1   72 1    
     3    1   73 1    
     4    1   74 1    
     5    2    3 2    
     6    2    4 am   BACKBONE|DICT|INTERRES
     7    4    5 1    
     8    4   75 1    
     9    5    6 1    
    10    5   35 1    
    11    5   76 1    
    12    6    7 1    
    13    6   77 1    
    14    6   78 1    
    15    7    8 1    
    16    8    9 1    
    17    8   79 1    
    18    8   80 1    
    19    9   10 ar   
    20    9   14 ar   
    21   10   11 ar   
    22   10   81 1    
    23   11   12 ar   
    24   11   71 1    
    25   12   13 ar   
    26   12   82 1    
    27   13   14 ar   
    28   13   15 1    
    29   14   83 1    
    30   15   16 1    
    31   15   84 1    
    32   15   85 1    
    33   16   17 1    
    34   17   18 1    
    35   17   86 1    
    36   17   87 1    
    37   18   19 1    
    38   18   37 1    
    39   18   88 1    
    40   19   20 am   BACKBONE|DICT|INTERRES
    41   19   89 1    
    42   20   21 2    
    43   20   22 1    
    44   22   23 1    
    45   22   24 1    
    46   22   90 1    
    47   23   91 1    
    48   23   92 1    
    49   23   93 1    
    50   24   25 am   BACKBONE|DICT|INTERRES
    51   24   94 1    
    52   25   26 2    
    53   25   27 1    
    54   27   28 1    
    55   27   29 1    
    56   27   95 1    
    57   28   96 1    
    58   28   97 1    
    59   28   98 1    
    60   29   30 am   BACKBONE|DICT|INTERRES
    61   29   99 1    
    62   30   31 2    
    63   30   32 1    
    64   32   33 1    
    65   32   34 1    
    66   32  100 1    
    67   33  101 1    
    68   33  102 1    
    69   33  103 1    
    70   34   35 am   BACKBONE|DICT|INTERRES
    71   34  104 1    
    72   35   36 2    
    73   37   38 2    
    74   37   39 am   BACKBONE|DICT|INTERRES
    75   39   40 1    
    76   39  105 1    
    77   40   41 1    
    78   40   42 1    
    79   40  106 1    
    80   41  107 1    
    81   41  108 1    
    82   41  109 1    
    83   42   43 2    
    84   42   44 am   BACKBONE|DICT|INTERRES
    85   44   45 1    
    86   44  110 1    
    87   45   46 1    
    88   45   47 1    
    89   45  111 1    
    90   46  112 1    
    91   46  113 1    
    92   46  114 1    
    93   47   48 2    
    94   47   49 am   BACKBONE|DICT|INTERRES
    95   49   50 1    
    96   49  115 1    
    97   50   51 1    
    98   50   52 1    
    99   50  116 1    
   100   51  117 1    
   101   51  118 1    
   102   51  119 1    
   103   52   53 2    
   104   52   54 am   BACKBONE|DICT|INTERRES
   105   54   55 1    
   106   54  120 1    
   107   55   56 1    
   108   55   57 1    
   109   55  121 1    
   110   56  122 1    
   111   56  123 1    
   112   56  124 1    
   113   57   58 2    
   114   57   59 am   BACKBONE|DICT|INTERRES
   115   59   60 1    
   116   59  125 1    
   117   60   61 1    
   118   60   62 1    
   119   60  126 1    
   120   61  127 1    
   121   61  128 1    
   122   61  129 1    
   123   62   63 2    
   124   62   64 am   BACKBONE|DICT|INTERRES
   125   64   65 1    
   126   64  130 1    
   127   65   66 1    
   128   65   69 1    
   129   65  131 1    
   130   66   67 am   BACKBONE|DICT|INTERRES
   131   66   68 2    
   132   67  132 1    
   133   67  133 1    
   134   69   70 1    
   135   69  134 1    
   136   69  135 1    
   137   70   71 1    
   138   71  136 1    
   139   71  137 1    
@<TRIPOS>SUBSTRUCTURE
     1 UNK         1 GROUP             0       ****    0 ROOT    
