@<TRIPOS>MOLECULE
3R137
137   139    1
SMALL
USER_CHARGES


@<TRIPOS>ATOM
      1 CA         26.0952   -5.9944   -5.2453 C.3       0 UNK        -0.2020 
      2 C          26.0064   -5.1376   -3.9922 C.2       0 UNK         0.4855 
      3 O          24.9222   -4.6635   -3.6519 O.2       0 UNK        -0.5197 
      4 N          27.1387   -4.9377   -3.3036 N.am      1 UNK        -0.4892 
      5 CA         27.2669   -4.1528   -2.0688 C.3       1 UNK         0.0835 
      6 C6         28.7039   -4.1642   -1.4589 C.3       12 UNK        -0.0855 
      7 S7         29.7928   -5.5680   -1.9127 S.3       12 UNK        -0.2931 
      8 C8         30.5456   -5.0376   -3.4953 C.3       12 UNK         0.0378 
      9 C9         31.3367   -3.7402   -3.3887 C.ar      12 UNK        -0.0802 
     10 C10        32.7067   -3.7519   -3.1072 C.ar      12 UNK        -0.0944 
     11 C11        33.4258   -2.5526   -3.0375 C.ar      12 UNK        -0.0787 
     12 C12        32.7587   -1.3359   -3.2156 C.ar      12 UNK        -0.0862 
     13 C13        31.3960   -1.3154   -3.5185 C.ar      12 UNK        -0.0733 
     14 C14        30.6984   -2.5197   -3.6188 C.ar      12 UNK        -0.0832 
     15 C15        30.6763   -0.0082   -3.8011 C.3       12 UNK         0.0240 
     16 S16        29.3789    0.3275   -2.5676 S.3       12 UNK        -0.2522 
     17 C17        28.3864    1.6606   -3.3305 C.3       12 UNK        -0.0967 
     18 CA         28.0864    1.5098   -4.8459 C.3       5 UNK         0.0660 
     19 N          27.5233    0.2030   -5.2072 N.am      5 UNK        -0.4015 
     20 C          27.3897   -0.2359   -6.4681 C.2       4 UNK         0.4946 
     21 O          27.8181    0.3668   -7.4520 O.2       4 UNK        -0.5353 
     22 CA         26.6111   -1.5413   -6.6863 C.3       4 UNK         0.0277 
     23 CB         27.5446   -2.7601   -6.6429 C.3       4 UNK        -0.1981 
     24 N          25.5166   -1.6963   -5.7261 N.am      4 UNK        -0.4209 
     25 C          24.3879   -0.9722   -5.7625 C.2       3 UNK         0.4942 
     26 O          24.1369   -0.1455   -6.6387 O.2       3 UNK        -0.5208 
     27 CA         23.3917   -1.1632   -4.6068 C.3       3 UNK         0.0250 
     28 CB         22.4576   -2.3512   -4.8839 C.3       3 UNK        -0.1990 
     29 N          24.0553   -1.3406   -3.3132 N.am      3 UNK        -0.4232 
     30 C          24.7650   -0.3831   -2.6975 C.2       2 UNK         0.4993 
     31 O          24.8930    0.7595   -3.1371 O.2       2 UNK        -0.5286 
     32 CA         25.5053   -0.7720   -1.4047 C.3       2 UNK         0.0209 
     33 CB         24.6161   -0.5128   -0.1784 C.3       2 UNK        -0.1931 
     34 N          25.9953   -2.1565   -1.3726 N.am      2 UNK        -0.4546 
     35 C          26.8059   -2.6972   -2.2928 C.2       1 UNK         0.5154 
     36 O          27.1910   -2.0947   -3.2983 O.2       1 UNK        -0.5181 
     37 C          27.1940    2.6622   -5.3456 C.2       5 UNK         0.5014 
     38 O          27.7124    3.6028   -5.9475 O.2       5 UNK        -0.5248 
     39 N          25.8733    2.5542   -5.1311 N.am      6 UNK        -0.4434 
     40 CA         24.8684    3.5094   -5.6106 C.3       6 UNK         0.0363 
     41 CB         23.4910    3.1429   -5.0360 C.3       6 UNK        -0.1936 
     42 C          24.8070    3.6073   -7.1455 C.2       6 UNK         0.5081 
     43 O          24.6671    4.7092   -7.6765 O.2       6 UNK        -0.5248 
     44 N          24.9423    2.4635   -7.8303 N.am      7 UNK        -0.4718 
     45 CA         25.0211    2.3716   -9.2915 C.3       7 UNK         0.0273 
     46 CB         24.7295    0.9214   -9.7121 C.3       7 UNK        -0.1935 
     47 C          26.3740    2.8253   -9.8742 C.2       7 UNK         0.5018 
     48 O          26.4578    3.0185  -11.0877 O.2       7 UNK        -0.5186 
     49 N          27.4033    2.9503   -9.0209 N.am      8 UNK        -0.4240 
     50 CA         28.8153    3.1923   -9.3472 C.3       8 UNK         0.0235 
     51 CB         29.0145    4.5975   -9.9536 C.3       8 UNK        -0.2000 
     52 C          29.4230    2.0650  -10.2086 C.2       8 UNK         0.4941 
     53 O          30.2457    2.3280  -11.0877 O.2       8 UNK        -0.5273 
     54 N          28.9977    0.8254   -9.9356 N.am      9 UNK        -0.4262 
     55 CA         29.4155   -0.3955  -10.6266 C.3       9 UNK         0.0264 
     56 CB         28.1941   -1.3237  -10.7443 C.3       9 UNK        -0.1955 
     57 C          30.5676   -1.1158   -9.9035 C.2       9 UNK         0.5031 
     58 O          31.1290   -2.0602  -10.4609 O.2       9 UNK        -0.5390 
     59 N          30.8900   -0.6787   -8.6824 N.am      10 UNK        -0.4204 
     60 CA         31.9203   -1.2210   -7.8037 C.3       10 UNK         0.0237 
     61 CB         31.2747   -2.3191   -6.9388 C.3       10 UNK        -0.1985 
     62 C          32.4751   -0.0560   -6.9581 C.2       10 UNK         0.4970 
     63 O          31.7909    0.9645   -6.8512 O.2       10 UNK        -0.4914 
     64 N          33.6572   -0.1578   -6.3323 N.am      11 UNK        -0.4285 
     65 CA         34.6299   -1.2636   -6.3613 C.3       11 UNK         0.1007 
     66 C          35.3815   -1.4006   -7.7162 C.2       11 UNK         0.5703 
     67 N          36.0753   -2.5101   -7.9264 N.am      11 UNK        -0.7361 
     68 O          35.3481   -0.5166   -8.5700 O.2       11 UNK        -0.4986 
     69 C69        35.6153   -1.1641   -5.1568 C.3       12 UNK        -0.0947 
     70 S70        35.8749   -2.7710   -4.3278 S.3       12 UNK        -0.2240 
     71 C71        34.9261   -2.5708   -2.7824 C.3       12 UNK         0.0194 
     72 H72        27.1268   -6.1456   -5.5627 H         1 UNK         0.0906 
     73 H73        25.6458   -6.9701   -5.0631 H         1 UNK         0.0906 
     74 H74        25.5549   -5.5205   -6.0643 H         1 UNK         0.0906 
     75 H75        27.9944   -5.3767   -3.6088 H         1 UNK         0.3140 
     76 H76        26.5901   -4.6182   -1.3488 H         1 UNK         0.1085 
     77 H77        28.6078   -4.1890   -0.3721 H         1 UNK         0.0836 
     78 H78        29.2415   -3.2349   -1.6385 H         1 UNK         0.0836 
     79 H79        29.7719   -4.9340   -4.2567 H         1 UNK         0.0731 
     80 H80        31.2011   -5.8349   -3.8491 H         1 UNK         0.0731 
     81 H81        33.2166   -4.6938   -2.9576 H         1 UNK         0.1312 
     82 H82        33.3055   -0.4060   -3.1500 H         1 UNK         0.1406 
     83 H83        29.6469   -2.5008   -3.8679 H         1 UNK         0.1631 
     84 H84        30.2444   -0.0979   -4.7950 H         1 UNK         0.0717 
     85 H85        31.3718    0.8316   -3.8346 H         1 UNK         0.0717 
     86 H86        27.4553    1.7281   -2.7650 H         1 UNK         0.0934 
     87 H87        28.9096    2.6017   -3.1501 H         1 UNK         0.0934 
     88 H88        29.0275    1.6198   -5.3878 H         1 UNK         0.0739 
     89 H89        27.2167   -0.3945   -4.4460 H         1 UNK         0.3093 
     90 H90        26.1756   -1.4966   -7.6866 H         1 UNK         0.0818 
     91 H91        28.0200   -2.8809   -5.6701 H         1 UNK         0.0819 
     92 H92        27.0043   -3.6775   -6.8715 H         1 UNK         0.0819 
     93 H93        28.3361   -2.6651   -7.3868 H         1 UNK         0.0819 
     94 H94        25.6883   -2.2944   -4.9274 H         1 UNK         0.3041 
     95 H95        22.7804   -0.2601   -4.5467 H         1 UNK         0.0784 
     96 H96        21.9233   -2.2136   -5.8251 H         1 UNK         0.0793 
     97 H97        23.0056   -3.2911   -4.9560 H         1 UNK         0.0793 
     98 H98        21.7081   -2.4586   -4.0996 H         1 UNK         0.0793 
     99 H99        24.0354   -2.2672   -2.9087 H         1 UNK         0.3024 
    100 H100       26.3802   -0.1217   -1.3352 H         1 UNK         0.1171 
    101 H101       25.1644   -0.6696    0.7507 H         1 UNK         0.0786 
    102 H102       24.2558    0.5171   -0.1686 H         1 UNK         0.0786 
    103 H103       23.7414   -1.1643   -0.1682 H         1 UNK         0.0786 
    104 H104       25.7141   -2.7147   -0.5791 H         1 UNK         0.2977 
    105 H105       25.5282    1.7803   -4.5655 H         1 UNK         0.3127 
    106 H106       25.1444    4.4947   -5.2293 H         1 UNK         0.0770 
    107 H107       23.1679    2.1542   -5.3631 H         1 UNK         0.0814 
    108 H108       22.7315    3.8575   -5.3558 H         1 UNK         0.0814 
    109 H109       23.5020    3.1469   -3.9459 H         1 UNK         0.0814 
    110 H110       24.9651    1.5871   -7.3172 H         1 UNK         0.2983 
    111 H111       24.2501    3.0156   -9.7202 H         1 UNK         0.0947 
    112 H112       24.7348    0.8181  -10.7980 H         1 UNK         0.0806 
    113 H113       23.7507    0.5946   -9.3607 H         1 UNK         0.0806 
    114 H114       25.4753    0.2318   -9.3156 H         1 UNK         0.0806 
    115 H115       27.2172    2.7634   -8.0432 H         1 UNK         0.3000 
    116 H116       29.3505    3.1651   -8.3965 H         1 UNK         0.0850 
    117 H117       30.0748    4.8278  -10.0639 H         1 UNK         0.0810 
    118 H118       28.5808    5.3681   -9.3163 H         1 UNK         0.0810 
    119 H119       28.5602    4.6822  -10.9411 H         1 UNK         0.0810 
    120 H120       28.3770    0.7000   -9.1353 H         1 UNK         0.3040 
    121 H121       29.7597   -0.1502  -11.6335 H         1 UNK         0.0766 
    122 H122       27.3818   -0.8413  -11.2884 H         1 UNK         0.0812 
    123 H123       27.8139   -1.6156   -9.7648 H         1 UNK         0.0812 
    124 H124       28.4467   -2.2380  -11.2830 H         1 UNK         0.0812 
    125 H125       30.4266    0.1444   -8.3164 H         1 UNK         0.3205 
    126 H126       32.7183   -1.6460   -8.4120 H         1 UNK         0.0754 
    127 H127       31.9693   -2.7473   -6.2190 H         1 UNK         0.0769 
    128 H128       30.9103   -3.1412   -7.5549 H         1 UNK         0.0769 
    129 H129       30.4275   -1.9277   -6.3772 H         1 UNK         0.0769 
    130 H130       33.9733    0.6555   -5.8277 H         1 UNK         0.2981 
    131 H131       34.0543   -2.1800   -6.2486 H         1 UNK         0.0541 
    132 H132       36.1274   -3.2286   -7.2205 H         1 UNK         0.3459 
    133 H133       36.5745   -2.6215   -8.7950 H         1 UNK         0.3459 
    134 H134       35.2605   -0.4517   -4.4120 H         1 UNK         0.0612 
    135 H135       36.5889   -0.7753   -5.4623 H         1 UNK         0.0612 
    136 H136       35.2421   -1.6593   -2.2727 H         1 UNK         0.0624 
    137 H137       35.1734   -3.3946   -2.1112 H         1 UNK         0.0624 
@<TRIPOS>BOND
     1    1    2 1    
     2    1   72 1    
     3    1   73 1    
     4    1   74 1    
     5    2    3 2    
     6    2    4 am   BACKBONE|DICT|INTERRES
     7    4    5 1    
     8    4   75 1    
     9    5    6 1    
    10    5   35 1    
    11    5   76 1    
    12    6    7 1    
    13    6   77 1    
    14    6   78 1    
    15    7    8 1    
    16    8    9 1    
    17    8   79 1    
    18    8   80 1    
    19    9   10 ar   
    20    9   14 ar   
    21   10   11 ar   
    22   10   81 1    
    23   11   12 ar   
    24   11   71 1    
    25   12   13 ar   
    26   12   82 1    
    27   13   14 ar   
    28   13   15 1    
    29   14   83 1    
    30   15   16 1    
    31   15   84 1    
    32   15   85 1    
    33   16   17 1    
    34   17   18 1    
    35   17   86 1    
    36   17   87 1    
    37   18   19 1    
    38   18   37 1    
    39   18   88 1    
    40   19   20 am   BACKBONE|DICT|INTERRES
    41   19   89 1    
    42   20   21 2    
    43   20   22 1    
    44   22   23 1    
    45   22   24 1    
    46   22   90 1    
    47   23   91 1    
    48   23   92 1    
    49   23   93 1    
    50   24   25 am   BACKBONE|DICT|INTERRES
    51   24   94 1    
    52   25   26 2    
    53   25   27 1    
    54   27   28 1    
    55   27   29 1    
    56   27   95 1    
    57   28   96 1    
    58   28   97 1    
    59   28   98 1    
    60   29   30 am   BACKBONE|DICT|INTERRES
    61   29   99 1    
    62   30   31 2    
    63   30   32 1    
    64   32   33 1    
    65   32   34 1    
    66   32  100 1    
    67   33  101 1    
    68   33  102 1    
    69   33  103 1    
    70   34   35 am   BACKBONE|DICT|INTERRES
    71   34  104 1    
    72   35   36 2    
    73   37   38 2    
    74   37   39 am   BACKBONE|DICT|INTERRES
    75   39   40 1    
    76   39  105 1    
    77   40   41 1    
    78   40   42 1    
    79   40  106 1    
    80   41  107 1    
    81   41  108 1    
    82   41  109 1    
    83   42   43 2    
    84   42   44 am   BACKBONE|DICT|INTERRES
    85   44   45 1    
    86   44  110 1    
    87   45   46 1    
    88   45   47 1    
    89   45  111 1    
    90   46  112 1    
    91   46  113 1    
    92   46  114 1    
    93   47   48 2    
    94   47   49 am   BACKBONE|DICT|INTERRES
    95   49   50 1    
    96   49  115 1    
    97   50   51 1    
    98   50   52 1    
    99   50  116 1    
   100   51  117 1    
   101   51  118 1    
   102   51  119 1    
   103   52   53 2    
   104   52   54 am   BACKBONE|DICT|INTERRES
   105   54   55 1    
   106   54  120 1    
   107   55   56 1    
   108   55   57 1    
   109   55  121 1    
   110   56  122 1    
   111   56  123 1    
   112   56  124 1    
   113   57   58 2    
   114   57   59 am   BACKBONE|DICT|INTERRES
   115   59   60 1    
   116   59  125 1    
   117   60   61 1    
   118   60   62 1    
   119   60  126 1    
   120   61  127 1    
   121   61  128 1    
   122   61  129 1    
   123   62   63 2    
   124   62   64 am   BACKBONE|DICT|INTERRES
   125   64   65 1    
   126   64  130 1    
   127   65   66 1    
   128   65   69 1    
   129   65  131 1    
   130   66   67 am   BACKBONE|DICT|INTERRES
   131   66   68 2    
   132   67  132 1    
   133   67  133 1    
   134   69   70 1    
   135   69  134 1    
   136   69  135 1    
   137   70   71 1    
   138   71  136 1    
   139   71  137 1    
@<TRIPOS>SUBSTRUCTURE
     1 UNK         1 GROUP             0       ****    0 ROOT    
