@<TRIPOS>MOLECULE
3R137
137   139    1
SMALL
USER_CHARGES


@<TRIPOS>ATOM
      1 CA         25.9673   -5.9658   -4.0240 C.3       0 UNK        -0.2020 
      2 C          25.8583   -5.3830   -2.6244 C.2       0 UNK         0.4855 
      3 O          24.8924   -5.6658   -1.9138 O.2       0 UNK        -0.5197 
      4 N          26.8391   -4.5660   -2.2184 N.am      1 UNK        -0.4892 
      5 CA         26.9242   -3.9373   -0.8925 C.3       1 UNK         0.0835 
      6 C6         28.3872   -3.6090   -0.4952 C.3       12 UNK        -0.0855 
      7 S7         29.3681   -5.1305   -0.2557 S.3       12 UNK        -0.2931 
      8 C8         31.0706   -4.5416   -0.5652 C.3       12 UNK         0.0378 
      9 C9         31.3634   -4.1169   -2.0051 C.ar      12 UNK        -0.0802 
     10 C10        32.3865   -3.1912   -2.2422 C.ar      12 UNK        -0.0944 
     11 C11        32.6883   -2.7780   -3.5436 C.ar      12 UNK        -0.0787 
     12 C12        31.9577   -3.2953   -4.6155 C.ar      12 UNK        -0.0862 
     13 C13        30.9179   -4.1997   -4.3939 C.ar      12 UNK        -0.0733 
     14 C14        30.6456   -4.6304   -3.0935 C.ar      12 UNK        -0.0832 
     15 C15        30.0528   -4.6699   -5.5522 C.3       12 UNK         0.0240 
     16 S16        28.4312   -3.8393   -5.5283 S.3       12 UNK        -0.2522 
     17 C17        28.8967   -2.0833   -5.7155 C.3       12 UNK        -0.0967 
     18 CA         27.9643   -1.3355   -6.6943 C.3       5 UNK         0.0660 
     19 N          26.5677   -1.3724   -6.2533 N.am      5 UNK        -0.4015 
     20 C          25.5190   -1.0439   -7.0169 C.2       4 UNK         0.4946 
     21 O          25.6124   -0.6844   -8.1895 O.2       4 UNK        -0.5353 
     22 CA         24.1365   -1.0766   -6.3427 C.3       4 UNK         0.0277 
     23 CB         23.5574   -2.4999   -6.3747 C.3       4 UNK        -0.1981 
     24 N          24.1279   -0.5786   -4.9617 N.am      4 UNK        -0.4209 
     25 C          24.5787    0.6140   -4.5521 C.2       3 UNK         0.4942 
     26 O          25.1076    1.4283   -5.3081 O.2       3 UNK        -0.5208 
     27 CA         24.4577    0.9755   -3.0594 C.3       3 UNK         0.0250 
     28 CB         23.2854    1.9505   -2.8377 C.3       3 UNK        -0.1990 
     29 N          24.3929   -0.1480   -2.1088 N.am      3 UNK        -0.4232 
     30 C          23.4413   -1.0793   -1.9600 C.2       2 UNK         0.4993 
     31 O          22.5005   -1.2284   -2.7414 O.2       2 UNK        -0.5286 
     32 CA         23.5842   -2.0098   -0.7419 C.3       2 UNK         0.0209 
     33 CB         22.2867   -2.7842   -0.4424 C.3       2 UNK        -0.1931 
     34 N          24.6750   -2.9723   -0.8978 N.am      2 UNK        -0.4546 
     35 C          25.9843   -2.7153   -0.7921 C.2       1 UNK         0.5154 
     36 O          26.4400   -1.5817   -0.6228 O.2       1 UNK        -0.5181 
     37 C          28.4610    0.1060   -6.9344 C.2       5 UNK         0.5014 
     38 O          29.2220    0.3331   -7.8757 O.2       5 UNK        -0.5248 
     39 N          28.0083    1.0613   -6.1085 N.am      6 UNK        -0.4434 
     40 CA         28.3092    2.4854   -6.2684 C.3       6 UNK         0.0363 
     41 CB         27.9940    3.2455   -4.9700 C.3       6 UNK        -0.1936 
     42 C          27.5547    3.0875   -7.4631 C.2       6 UNK         0.5081 
     43 O          28.1448    3.8560   -8.2207 O.2       6 UNK        -0.5248 
     44 N          26.2896    2.6831   -7.6507 N.am      7 UNK        -0.4718 
     45 CA         25.4652    3.0300   -8.8141 C.3       7 UNK         0.0273 
     46 CB         24.0269    2.5369   -8.5921 C.3       7 UNK        -0.1935 
     47 C          26.0377    2.4857  -10.1369 C.2       7 UNK         0.5018 
     48 O          25.9807    3.1792  -11.1525 O.2       7 UNK        -0.5186 
     49 N          26.6233    1.2807  -10.0885 N.am      8 UNK        -0.4240 
     50 CA         27.3742    0.6561  -11.1822 C.3       8 UNK         0.0235 
     51 CB         27.4771   -0.8553  -10.9149 C.3       8 UNK        -0.2000 
     52 C          28.7774    1.2588  -11.4076 C.2       8 UNK         0.4941 
     53 O          29.4328    0.8736  -12.3769 O.2       8 UNK        -0.5273 
     54 N          29.2166    2.1724  -10.5275 N.am      9 UNK        -0.4262 
     55 CA         30.5115    2.8619  -10.5203 C.3       9 UNK         0.0264 
     56 CB         30.6621    3.7741  -11.7572 C.3       9 UNK        -0.1955 
     57 C          31.7091    1.9143  -10.3114 C.2       9 UNK         0.5031 
     58 O          32.7579    2.1025  -10.9334 O.2       9 UNK        -0.5390 
     59 N          31.5426    0.9224   -9.4262 N.am      10 UNK        -0.4204 
     60 CA         32.6084    0.0313   -8.9646 C.3       10 UNK         0.0237 
     61 CB         31.9738   -1.2876   -8.4826 C.3       10 UNK        -0.1985 
     62 C          33.4521    0.6924   -7.8541 C.2       10 UNK         0.4970 
     63 O          33.2526    1.8651   -7.5267 O.2       10 UNK        -0.4914 
     64 N          34.3749   -0.0944   -7.2863 N.am      11 UNK        -0.4285 
     65 CA         35.2764    0.2644   -6.1739 C.3       11 UNK         0.1007 
     66 C          36.4574    1.2020   -6.5687 C.2       11 UNK         0.5703 
     67 N          36.7079    1.4531   -7.8483 N.am      11 UNK        -0.7361 
     68 O          37.1839    1.6852   -5.7030 O.2       11 UNK        -0.4986 
     69 C69        34.5514    0.7485   -4.8774 C.3       12 UNK        -0.0947 
     70 S70        33.0628   -0.1998   -4.4137 S.3       12 UNK        -0.2240 
     71 C71        33.7820   -1.7543   -3.8048 C.3       12 UNK         0.0194 
     72 H72        25.3935   -6.8892   -4.0995 H         1 UNK         0.0906 
     73 H73        25.5792   -5.2618   -4.7595 H         1 UNK         0.0906 
     74 H74        27.0024   -6.1963   -4.2748 H         1 UNK         0.0906 
     75 H75        27.5890   -4.3401   -2.8567 H         1 UNK         0.3140 
     76 H76        26.5522   -4.6518   -0.1538 H         1 UNK         0.1085 
     77 H77        28.8557   -2.9719   -1.2478 H         1 UNK         0.0836 
     78 H78        28.4199   -3.0509    0.4428 H         1 UNK         0.0836 
     79 H79        31.2744   -3.7142    0.1166 H         1 UNK         0.0731 
     80 H80        31.7641   -5.3397   -0.2974 H         1 UNK         0.0731 
     81 H81        32.9471   -2.7869   -1.4102 H         1 UNK         0.1312 
     82 H82        32.1773   -2.9596   -5.6199 H         1 UNK         0.1406 
     83 H83        29.8511   -5.3460   -2.9359 H         1 UNK         0.1631 
     84 H84        29.9035   -5.7486   -5.4855 H         1 UNK         0.0717 
     85 H85        30.5426   -4.4841   -6.5095 H         1 UNK         0.0717 
     86 H86        28.8934   -1.6155   -4.7289 H         1 UNK         0.0934 
     87 H87        29.9244   -2.0277   -6.0724 H         1 UNK         0.0934 
     88 H88        28.0146   -1.8490   -7.6570 H         1 UNK         0.0739 
     89 H89        26.3997   -1.6769   -5.3064 H         1 UNK         0.3093 
     90 H90        23.4780   -0.4265   -6.9219 H         1 UNK         0.0818 
     91 H91        22.5346   -2.5201   -5.9977 H         1 UNK         0.0819 
     92 H92        23.5335   -2.8893   -7.3936 H         1 UNK         0.0819 
     93 H93        24.1491   -3.1918   -5.7740 H         1 UNK         0.0819 
     94 H94        23.6202   -1.1278   -4.2735 H         1 UNK         0.3041 
     95 H95        25.3757    1.5101   -2.8097 H         1 UNK         0.0784 
     96 H96        23.3854    2.8319   -3.4731 H         1 UNK         0.0793 
     97 H97        22.3243    1.4913   -3.0714 H         1 UNK         0.0793 
     98 H98        23.2491    2.2994   -1.8057 H         1 UNK         0.0793 
     99 H99        25.1817   -0.2176   -1.4719 H         1 UNK         0.3024 
    100 H100       23.7989   -1.3784    0.1237 H         1 UNK         0.1171 
    101 H101       21.4450   -2.1025   -0.3125 H         1 UNK         0.0786 
    102 H102       22.3749   -3.3659    0.4754 H         1 UNK         0.0786 
    103 H103       22.0295   -3.4708   -1.2503 H         1 UNK         0.0786 
    104 H104       24.4142   -3.9298   -1.1181 H         1 UNK         0.2977 
    105 H105       27.3154    0.8225   -5.4131 H         1 UNK         0.3127 
    106 H106       29.3793    2.5873   -6.4646 H         1 UNK         0.0770 
    107 H107       26.9334    3.2124   -4.7211 H         1 UNK         0.0814 
    108 H108       28.2708    4.2965   -5.0619 H         1 UNK         0.0814 
    109 H109       28.5507    2.8375   -4.1263 H         1 UNK         0.0814 
    110 H110       25.8642    2.0894   -6.9423 H         1 UNK         0.2983 
    111 H111       25.4448    4.1194   -8.8896 H         1 UNK         0.0947 
    112 H112       23.3804    2.8390   -9.4171 H         1 UNK         0.0806 
    113 H113       23.6019    2.9504   -7.6772 H         1 UNK         0.0806 
    114 H114       23.9781    1.4505   -8.5218 H         1 UNK         0.0806 
    115 H115       26.5324    0.7372   -9.2347 H         1 UNK         0.3000 
    116 H116       26.8113    0.8004  -12.1066 H         1 UNK         0.0850 
    117 H117       27.9727   -1.3681  -11.7402 H         1 UNK         0.0810 
    118 H118       26.4915   -1.3068  -10.7993 H         1 UNK         0.0810 
    119 H119       28.0498   -1.0640  -10.0111 H         1 UNK         0.0810 
    120 H120       28.6032    2.4209   -9.7603 H         1 UNK         0.3040 
    121 H121       30.4965    3.5099   -9.6429 H         1 UNK         0.0766 
    122 H122       29.8102    4.4462  -11.8596 H         1 UNK         0.0812 
    123 H123       30.7492    3.1980  -12.6787 H         1 UNK         0.0812 
    124 H124       31.5554    4.3947  -11.6777 H         1 UNK         0.0812 
    125 H125       30.6528    0.8399   -8.9357 H         1 UNK         0.3205 
    126 H126       33.2697   -0.1915   -9.8045 H         1 UNK         0.0754 
    127 H127       32.7241   -2.0654   -8.3388 H         1 UNK         0.0769 
    128 H128       31.2511   -1.6711   -9.2036 H         1 UNK         0.0769 
    129 H129       31.4581   -1.1523   -7.5327 H         1 UNK         0.0769 
    130 H130       34.4820   -1.0355   -7.6345 H         1 UNK         0.2981 
    131 H131       35.7686   -0.6741   -5.9191 H         1 UNK         0.0541 
    132 H132       37.4819    2.0513   -8.0911 H         1 UNK         0.3459 
    133 H133       36.1259    1.0612   -8.5706 H         1 UNK         0.3459 
    134 H134       34.2431    1.7892   -4.9895 H         1 UNK         0.0612 
    135 H135       35.2399    0.7324   -4.0307 H         1 UNK         0.0612 
    136 H136       34.4757   -2.1560   -4.5440 H         1 UNK         0.0624 
    137 H137       34.3607   -1.5557   -2.9015 H         1 UNK         0.0624 
@<TRIPOS>BOND
     1    1    2 1    
     2    1   72 1    
     3    1   73 1    
     4    1   74 1    
     5    2    3 2    
     6    2    4 am   BACKBONE|DICT|INTERRES
     7    4    5 1    
     8    4   75 1    
     9    5    6 1    
    10    5   35 1    
    11    5   76 1    
    12    6    7 1    
    13    6   77 1    
    14    6   78 1    
    15    7    8 1    
    16    8    9 1    
    17    8   79 1    
    18    8   80 1    
    19    9   10 ar   
    20    9   14 ar   
    21   10   11 ar   
    22   10   81 1    
    23   11   12 ar   
    24   11   71 1    
    25   12   13 ar   
    26   12   82 1    
    27   13   14 ar   
    28   13   15 1    
    29   14   83 1    
    30   15   16 1    
    31   15   84 1    
    32   15   85 1    
    33   16   17 1    
    34   17   18 1    
    35   17   86 1    
    36   17   87 1    
    37   18   19 1    
    38   18   37 1    
    39   18   88 1    
    40   19   20 am   BACKBONE|DICT|INTERRES
    41   19   89 1    
    42   20   21 2    
    43   20   22 1    
    44   22   23 1    
    45   22   24 1    
    46   22   90 1    
    47   23   91 1    
    48   23   92 1    
    49   23   93 1    
    50   24   25 am   BACKBONE|DICT|INTERRES
    51   24   94 1    
    52   25   26 2    
    53   25   27 1    
    54   27   28 1    
    55   27   29 1    
    56   27   95 1    
    57   28   96 1    
    58   28   97 1    
    59   28   98 1    
    60   29   30 am   BACKBONE|DICT|INTERRES
    61   29   99 1    
    62   30   31 2    
    63   30   32 1    
    64   32   33 1    
    65   32   34 1    
    66   32  100 1    
    67   33  101 1    
    68   33  102 1    
    69   33  103 1    
    70   34   35 am   BACKBONE|DICT|INTERRES
    71   34  104 1    
    72   35   36 2    
    73   37   38 2    
    74   37   39 am   BACKBONE|DICT|INTERRES
    75   39   40 1    
    76   39  105 1    
    77   40   41 1    
    78   40   42 1    
    79   40  106 1    
    80   41  107 1    
    81   41  108 1    
    82   41  109 1    
    83   42   43 2    
    84   42   44 am   BACKBONE|DICT|INTERRES
    85   44   45 1    
    86   44  110 1    
    87   45   46 1    
    88   45   47 1    
    89   45  111 1    
    90   46  112 1    
    91   46  113 1    
    92   46  114 1    
    93   47   48 2    
    94   47   49 am   BACKBONE|DICT|INTERRES
    95   49   50 1    
    96   49  115 1    
    97   50   51 1    
    98   50   52 1    
    99   50  116 1    
   100   51  117 1    
   101   51  118 1    
   102   51  119 1    
   103   52   53 2    
   104   52   54 am   BACKBONE|DICT|INTERRES
   105   54   55 1    
   106   54  120 1    
   107   55   56 1    
   108   55   57 1    
   109   55  121 1    
   110   56  122 1    
   111   56  123 1    
   112   56  124 1    
   113   57   58 2    
   114   57   59 am   BACKBONE|DICT|INTERRES
   115   59   60 1    
   116   59  125 1    
   117   60   61 1    
   118   60   62 1    
   119   60  126 1    
   120   61  127 1    
   121   61  128 1    
   122   61  129 1    
   123   62   63 2    
   124   62   64 am   BACKBONE|DICT|INTERRES
   125   64   65 1    
   126   64  130 1    
   127   65   66 1    
   128   65   69 1    
   129   65  131 1    
   130   66   67 am   BACKBONE|DICT|INTERRES
   131   66   68 2    
   132   67  132 1    
   133   67  133 1    
   134   69   70 1    
   135   69  134 1    
   136   69  135 1    
   137   70   71 1    
   138   71  136 1    
   139   71  137 1    
@<TRIPOS>SUBSTRUCTURE
     1 UNK         1 GROUP             0       ****    0 ROOT    
