@<TRIPOS>MOLECULE
3R137
137   139    1
SMALL
USER_CHARGES


@<TRIPOS>ATOM
      1 CA         23.9095   -0.2764    1.1170 C.3       0 UNK        -0.2020 
      2 C          24.5138   -1.0941   -0.0141 C.2       0 UNK         0.4855 
      3 O          23.8762   -2.0298   -0.4985 O.2       0 UNK        -0.5197 
      4 N          25.7341   -0.7413   -0.4442 N.am      1 UNK        -0.4892 
      5 CA         26.5236   -1.3583   -1.5208 C.3       1 UNK         0.0835 
      6 C6         26.8068   -2.8678   -1.2913 C.3       12 UNK        -0.0855 
      7 S7         28.1750   -3.4879   -2.3261 S.3       12 UNK        -0.2931 
      8 C8         29.5926   -3.3757   -1.1881 C.3       12 UNK         0.0378 
      9 C9         30.7968   -2.7710   -1.8918 C.ar      12 UNK        -0.0802 
     10 C10        31.5636   -3.5519   -2.7634 C.ar      12 UNK        -0.0944 
     11 C11        32.6479   -2.9981   -3.4523 C.ar      12 UNK        -0.0787 
     12 C12        32.9891   -1.6606   -3.2152 C.ar      12 UNK        -0.0862 
     13 C13        32.2260   -0.8663   -2.3543 C.ar      12 UNK        -0.0733 
     14 C14        31.1279   -1.4260   -1.6953 C.ar      12 UNK        -0.0832 
     15 C15        32.6101    0.5896   -2.1332 C.3       12 UNK         0.0240 
     16 S16        32.2867    1.6132   -3.6063 S.3       12 UNK        -0.2522 
     17 C17        30.5738    2.1856   -3.3415 C.3       12 UNK        -0.0967 
     18 CA         29.7063    2.0249   -4.6149 C.3       5 UNK         0.0660 
     19 N          29.5023    0.6142   -4.9481 N.am      5 UNK        -0.4015 
     20 C          28.8496    0.1134   -6.0046 C.2       4 UNK         0.4946 
     21 O          28.1640    0.7830   -6.7790 O.2       4 UNK        -0.5353 
     22 CA         29.0286   -1.3858   -6.2741 C.3       4 UNK         0.0277 
     23 CB         30.1226   -2.0463   -5.4178 C.3       4 UNK        -0.1981 
     24 N          27.7677   -2.0823   -6.0600 N.am      4 UNK        -0.4209 
     25 C          27.4146   -3.2182   -6.6795 C.2       3 UNK         0.4942 
     26 O          28.0867   -3.7358   -7.5730 O.2       3 UNK        -0.5208 
     27 CA         26.1270   -3.9311   -6.2194 C.3       3 UNK         0.0250 
     28 CB         26.4625   -5.2944   -5.5902 C.3       3 UNK        -0.1990 
     29 N          25.3534   -3.1499   -5.2546 N.am      3 UNK        -0.4232 
     30 C          24.5231   -2.1499   -5.5752 C.2       2 UNK         0.4993 
     31 O          24.2174   -1.8672   -6.7322 O.2       2 UNK        -0.5286 
     32 CA         23.9538   -1.3073   -4.4186 C.3       2 UNK         0.0209 
     33 CB         22.4715   -1.6382   -4.1839 C.3       2 UNK        -0.1931 
     34 N          24.6814   -1.4546   -3.1513 N.am      2 UNK        -0.4546 
     35 C          25.9455   -1.0765   -2.9230 C.2       1 UNK         0.5154 
     36 O          26.6464   -0.5188   -3.7691 O.2       1 UNK        -0.5181 
     37 C          28.4267    2.8779   -4.5070 C.2       5 UNK         0.5014 
     38 O          28.4842    4.0551   -4.8651 O.2       5 UNK        -0.5248 
     39 N          27.3042    2.3112   -4.0374 N.am      6 UNK        -0.4434 
     40 CA         26.0492    3.0615   -3.8830 C.3       6 UNK         0.0363 
     41 CB         25.1295    2.3717   -2.8634 C.3       6 UNK        -0.1936 
     42 C          25.3169    3.2818   -5.2183 C.2       6 UNK         0.5081 
     43 O          24.5532    4.2408   -5.3307 O.2       6 UNK        -0.5248 
     44 N          25.5663    2.4088   -6.2032 N.am      7 UNK        -0.4718 
     45 CA         25.0327    2.5143   -7.5645 C.3       7 UNK         0.0273 
     46 CB         24.6153    1.1112   -8.0319 C.3       7 UNK        -0.1935 
     47 C          26.0478    3.1205   -8.5498 C.2       7 UNK         0.5018 
     48 O          25.6802    3.3804   -9.6960 O.2       7 UNK        -0.5186 
     49 N          27.3022    3.2956   -8.1039 N.am      8 UNK        -0.4240 
     50 CA         28.4955    3.6301   -8.8915 C.3       8 UNK         0.0235 
     51 CB         28.3934    5.0476   -9.4939 C.3       8 UNK        -0.2000 
     52 C          28.8248    2.5445   -9.9386 C.2       8 UNK         0.4941 
     53 O          29.2895    2.8614  -11.0346 O.2       8 UNK        -0.5273 
     54 N          28.5783    1.2768   -9.5760 N.am      9 UNK        -0.4262 
     55 CA         28.7492    0.1019  -10.4368 C.3       9 UNK         0.0264 
     56 CB         27.7008   -0.9554  -10.0491 C.3       9 UNK        -0.1955 
     57 C          30.1774   -0.4779  -10.4198 C.2       9 UNK         0.5031 
     58 O          30.4378   -1.4408  -11.1434 O.2       9 UNK        -0.5390 
     59 N          31.0731    0.1036   -9.6044 N.am      10 UNK        -0.4204 
     60 CA         32.5194   -0.1606   -9.5290 C.3       10 UNK         0.0237 
     61 CB         33.2230    0.4168  -10.7759 C.3       10 UNK        -0.1985 
     62 C          32.8902   -1.6371   -9.2729 C.2       10 UNK         0.4970 
     63 O          33.8886   -2.1220   -9.8085 O.2       10 UNK        -0.4914 
     64 N          32.0706   -2.3166   -8.4607 N.am      11 UNK        -0.4285 
     65 CA         32.1833   -3.7401   -8.0944 C.3       11 UNK         0.1007 
     66 C          31.8853   -4.7293   -9.2630 C.2       11 UNK         0.5703 
     67 N          31.3224   -4.2903  -10.3845 N.am      11 UNK        -0.7361 
     68 O          32.1401   -5.9255   -9.1430 O.2       11 UNK        -0.4986 
     69 C69        33.4966   -4.0895   -7.3260 C.3       12 UNK        -0.0947 
     70 S70        33.8816   -2.9279   -5.9676 S.3       12 UNK        -0.2240 
     71 C71        33.4219   -3.8506   -4.4583 C.3       12 UNK         0.0194 
     72 H72        23.6943   -0.9194    1.9701 H         1 UNK         0.0906 
     73 H73        24.5771    0.5176    1.4508 H         1 UNK         0.0906 
     74 H74        22.9755    0.1805    0.7910 H         1 UNK         0.0906 
     75 H75        26.1801    0.0525   -0.0040 H         1 UNK         0.3140 
     76 H76        27.4853   -0.8428   -1.4865 H         1 UNK         0.1085 
     77 H77        25.9205   -3.4711   -1.4954 H         1 UNK         0.0836 
     78 H78        27.0429   -3.0513   -0.2421 H         1 UNK         0.0836 
     79 H79        29.8369   -4.3729   -0.8189 H         1 UNK         0.0731 
     80 H80        29.3368   -2.7791   -0.3114 H         1 UNK         0.0731 
     81 H81        31.2893   -4.5847   -2.9306 H         1 UNK         0.1312 
     82 H82        33.8355   -1.2210   -3.7247 H         1 UNK         0.1406 
     83 H83        30.5331   -0.8170   -1.0281 H         1 UNK         0.1631 
     84 H84        32.0995    1.0092   -1.2651 H         1 UNK         0.0717 
     85 H85        33.6761    0.6392   -1.9065 H         1 UNK         0.0717 
     86 H86        30.1213    1.6557   -2.5011 H         1 UNK         0.0934 
     87 H87        30.6353    3.2339   -3.0406 H         1 UNK         0.0934 
     88 H88        30.2657    2.4477   -5.4524 H         1 UNK         0.0739 
     89 H89        30.0264   -0.0351   -4.3797 H         1 UNK         0.3093 
     90 H90        29.3175   -1.4750   -7.3214 H         1 UNK         0.0818 
     91 H91        31.0977   -1.5858   -5.5817 H         1 UNK         0.0819 
     92 H92        30.2228   -3.1074   -5.6403 H         1 UNK         0.0819 
     93 H93        29.8857   -1.9740   -4.3581 H         1 UNK         0.0819 
     94 H94        27.1617   -1.6795   -5.3523 H         1 UNK         0.3041 
     95 H95        25.5167   -4.1060   -7.1081 H         1 UNK         0.0784 
     96 H96        27.0937   -5.1874   -4.7071 H         1 UNK         0.0793 
     97 H97        25.5596   -5.8299   -5.2962 H         1 UNK         0.0793 
     98 H98        26.9980   -5.9302   -6.2967 H         1 UNK         0.0793 
     99 H99        25.5398   -3.3217   -4.2773 H         1 UNK         0.3024 
    100 H100       24.0275   -0.2640   -4.7321 H         1 UNK         0.1171 
    101 H101       21.8917   -1.5111   -5.0994 H         1 UNK         0.0786 
    102 H102       22.3367   -2.6682   -3.8514 H         1 UNK         0.0786 
    103 H103       22.0336   -0.9823   -3.4312 H         1 UNK         0.0786 
    104 H104       24.1748   -1.8549   -2.3645 H         1 UNK         0.2977 
    105 H105       27.2829    1.3148   -3.8352 H         1 UNK         0.3127 
    106 H106       26.2916    4.0478   -3.4802 H         1 UNK         0.0770 
    107 H107       25.6582    2.1282   -1.9421 H         1 UNK         0.0814 
    108 H108       24.6956    1.4576   -3.2624 H         1 UNK         0.0814 
    109 H109       24.2975    3.0245   -2.5964 H         1 UNK         0.0814 
    110 H110       26.2291    1.6605   -6.0362 H         1 UNK         0.2983 
    111 H111       24.1482    3.1549   -7.5786 H         1 UNK         0.0947 
    112 H112       24.2335    1.1302   -9.0535 H         1 UNK         0.0806 
    113 H113       23.8222    0.7093   -7.4019 H         1 UNK         0.0806 
    114 H114       25.4515    0.4106   -8.0083 H         1 UNK         0.0806 
    115 H115       27.4816    3.0238   -7.1468 H         1 UNK         0.3000 
    116 H116       29.3291    3.6326   -8.1876 H         1 UNK         0.0850 
    117 H117       29.3371    5.3451   -9.9525 H         1 UNK         0.0810 
    118 H118       28.1586    5.7873   -8.7286 H         1 UNK         0.0810 
    119 H119       27.6262    5.1076  -10.2663 H         1 UNK         0.0810 
    120 H120       28.2351    1.1063   -8.6324 H         1 UNK         0.3040 
    121 H121       28.5509    0.3938  -11.4704 H         1 UNK         0.0766 
    122 H122       26.6898   -0.5831  -10.2150 H         1 UNK         0.0812 
    123 H123       27.7766   -1.2427   -9.0024 H         1 UNK         0.0812 
    124 H124       27.8107   -1.8623  -10.6453 H         1 UNK         0.0812 
    125 H125       30.7417    0.8774   -9.0467 H         1 UNK         0.3205 
    126 H126       32.8858    0.3904   -8.6614 H         1 UNK         0.0754 
    127 H127       34.3079    0.3504  -10.6838 H         1 UNK         0.0769 
    128 H128       32.9766    1.4690  -10.9191 H         1 UNK         0.0769 
    129 H129       32.9384   -0.1197  -11.6820 H         1 UNK         0.0769 
    130 H130       31.2625   -1.8388   -8.0983 H         1 UNK         0.2981 
    131 H131       31.3632   -3.9154   -7.4007 H         1 UNK         0.0541 
    132 H132       31.1268   -4.9466  -11.1230 H         1 UNK         0.3459 
    133 H133       31.0988   -3.3097  -10.5120 H         1 UNK         0.3459 
    134 H134       33.4492   -5.1038   -6.9272 H         1 UNK         0.0612 
    135 H135       34.3450   -4.0830   -8.0117 H         1 UNK         0.0612 
    136 H136       34.3278   -4.2301   -3.9845 H         1 UNK         0.0624 
    137 H137       32.8261   -4.7208   -4.7366 H         1 UNK         0.0624 
@<TRIPOS>BOND
     1    1    2 1    
     2    1   72 1    
     3    1   73 1    
     4    1   74 1    
     5    2    3 2    
     6    2    4 am   BACKBONE|DICT|INTERRES
     7    4    5 1    
     8    4   75 1    
     9    5    6 1    
    10    5   35 1    
    11    5   76 1    
    12    6    7 1    
    13    6   77 1    
    14    6   78 1    
    15    7    8 1    
    16    8    9 1    
    17    8   79 1    
    18    8   80 1    
    19    9   10 ar   
    20    9   14 ar   
    21   10   11 ar   
    22   10   81 1    
    23   11   12 ar   
    24   11   71 1    
    25   12   13 ar   
    26   12   82 1    
    27   13   14 ar   
    28   13   15 1    
    29   14   83 1    
    30   15   16 1    
    31   15   84 1    
    32   15   85 1    
    33   16   17 1    
    34   17   18 1    
    35   17   86 1    
    36   17   87 1    
    37   18   19 1    
    38   18   37 1    
    39   18   88 1    
    40   19   20 am   BACKBONE|DICT|INTERRES
    41   19   89 1    
    42   20   21 2    
    43   20   22 1    
    44   22   23 1    
    45   22   24 1    
    46   22   90 1    
    47   23   91 1    
    48   23   92 1    
    49   23   93 1    
    50   24   25 am   BACKBONE|DICT|INTERRES
    51   24   94 1    
    52   25   26 2    
    53   25   27 1    
    54   27   28 1    
    55   27   29 1    
    56   27   95 1    
    57   28   96 1    
    58   28   97 1    
    59   28   98 1    
    60   29   30 am   BACKBONE|DICT|INTERRES
    61   29   99 1    
    62   30   31 2    
    63   30   32 1    
    64   32   33 1    
    65   32   34 1    
    66   32  100 1    
    67   33  101 1    
    68   33  102 1    
    69   33  103 1    
    70   34   35 am   BACKBONE|DICT|INTERRES
    71   34  104 1    
    72   35   36 2    
    73   37   38 2    
    74   37   39 am   BACKBONE|DICT|INTERRES
    75   39   40 1    
    76   39  105 1    
    77   40   41 1    
    78   40   42 1    
    79   40  106 1    
    80   41  107 1    
    81   41  108 1    
    82   41  109 1    
    83   42   43 2    
    84   42   44 am   BACKBONE|DICT|INTERRES
    85   44   45 1    
    86   44  110 1    
    87   45   46 1    
    88   45   47 1    
    89   45  111 1    
    90   46  112 1    
    91   46  113 1    
    92   46  114 1    
    93   47   48 2    
    94   47   49 am   BACKBONE|DICT|INTERRES
    95   49   50 1    
    96   49  115 1    
    97   50   51 1    
    98   50   52 1    
    99   50  116 1    
   100   51  117 1    
   101   51  118 1    
   102   51  119 1    
   103   52   53 2    
   104   52   54 am   BACKBONE|DICT|INTERRES
   105   54   55 1    
   106   54  120 1    
   107   55   56 1    
   108   55   57 1    
   109   55  121 1    
   110   56  122 1    
   111   56  123 1    
   112   56  124 1    
   113   57   58 2    
   114   57   59 am   BACKBONE|DICT|INTERRES
   115   59   60 1    
   116   59  125 1    
   117   60   61 1    
   118   60   62 1    
   119   60  126 1    
   120   61  127 1    
   121   61  128 1    
   122   61  129 1    
   123   62   63 2    
   124   62   64 am   BACKBONE|DICT|INTERRES
   125   64   65 1    
   126   64  130 1    
   127   65   66 1    
   128   65   69 1    
   129   65  131 1    
   130   66   67 am   BACKBONE|DICT|INTERRES
   131   66   68 2    
   132   67  132 1    
   133   67  133 1    
   134   69   70 1    
   135   69  134 1    
   136   69  135 1    
   137   70   71 1    
   138   71  136 1    
   139   71  137 1    
@<TRIPOS>SUBSTRUCTURE
     1 UNK         1 GROUP             0       ****    0 ROOT    
