@<TRIPOS>MOLECULE
3R137
137   139    1
SMALL
USER_CHARGES


@<TRIPOS>ATOM
      1 CA         22.7277   -5.2816   -3.0139 C.3       0 UNK        -0.2020 
      2 C          23.9205   -4.7283   -2.2486 C.2       0 UNK         0.4855 
      3 O          23.7366   -4.0148   -1.2617 O.2       0 UNK        -0.5197 
      4 N          25.1419   -5.0520   -2.6942 N.am      1 UNK        -0.4892 
      5 CA         26.3952   -4.5233   -2.1433 C.3       1 UNK         0.0835 
      6 C6         27.6122   -5.3826   -2.5837 C.3       12 UNK        -0.0855 
      7 S7         28.9876   -5.3075   -1.3812 S.3       12 UNK        -0.2931 
      8 C8         30.4647   -5.4427   -2.4443 C.3       12 UNK         0.0378 
      9 C9         30.7176   -4.1760   -3.2510 C.ar      12 UNK        -0.0802 
     10 C10        31.1938   -3.0220   -2.6216 C.ar      12 UNK        -0.0944 
     11 C11        31.3993   -1.8436   -3.3478 C.ar      12 UNK        -0.0787 
     12 C12        31.1141   -1.8285   -4.7176 C.ar      12 UNK        -0.0862 
     13 C13        30.6680   -2.9853   -5.3662 C.ar      12 UNK        -0.0733 
     14 C14        30.4833   -4.1586   -4.6280 C.ar      12 UNK        -0.0832 
     15 C15        30.3584   -2.9501   -6.8598 C.3       12 UNK         0.0240 
     16 S16        28.7165   -3.6212   -7.2858 S.3       12 UNK        -0.2522 
     17 C17        27.6304   -2.7351   -6.1188 C.3       12 UNK        -0.0967 
     18 CA         26.8752   -1.5322   -6.7235 C.3       5 UNK         0.0660 
     19 N          25.7503   -1.1743   -5.8638 N.am      5 UNK        -0.4015 
     20 C          24.7257   -0.3839   -6.2025 C.2       4 UNK         0.4946 
     21 O          24.6763    0.2656   -7.2470 O.2       4 UNK        -0.5353 
     22 CA         23.5519   -0.3304   -5.2145 C.3       4 UNK         0.0277 
     23 CB         22.6999   -1.6068   -5.3245 C.3       4 UNK        -0.1981 
     24 N          24.0308   -0.1908   -3.8391 N.am      4 UNK        -0.4209 
     25 C          23.9666    0.9406   -3.1253 C.2       3 UNK         0.4942 
     26 O          23.4119    1.9697   -3.5135 O.2       3 UNK        -0.5208 
     27 CA         24.6402    0.9379   -1.7395 C.3       3 UNK         0.0250 
     28 CB         23.6100    0.6121   -0.6458 C.3       3 UNK        -0.1990 
     29 N          25.7813    0.0250   -1.6105 N.am      3 UNK        -0.4232 
     30 C          26.8877    0.0515   -2.3671 C.2       2 UNK         0.4993 
     31 O          27.0613    0.8168   -3.3135 O.2       2 UNK        -0.5286 
     32 CA         27.9653   -0.9955   -2.0512 C.3       2 UNK         0.0209 
     33 CB         28.8169   -0.5319   -0.8581 C.3       2 UNK        -0.1931 
     34 N          27.4667   -2.3504   -1.7874 N.am      2 UNK        -0.4546 
     35 C          26.5798   -3.0374   -2.5204 C.2       1 UNK         0.5154 
     36 O          25.9465   -2.5555   -3.4661 O.2       1 UNK        -0.5181 
     37 C          27.8105   -0.3486   -7.0429 C.2       5 UNK         0.5014 
     38 O          28.3225   -0.2918   -8.1616 O.2       5 UNK        -0.5248 
     39 N          27.9969    0.6001   -6.1086 N.am      6 UNK        -0.4434 
     40 CA         28.8741    1.7666   -6.2990 C.3       6 UNK         0.0363 
     41 CB         29.0455    2.5198   -4.9710 C.3       6 UNK        -0.1936 
     42 C          28.4167    2.7351   -7.4084 C.2       6 UNK         0.5081 
     43 O          29.2215    3.5366   -7.8825 O.2       6 UNK        -0.5248 
     44 N          27.1467    2.6430   -7.8233 N.am      7 UNK        -0.4718 
     45 CA         26.6121    3.3558   -8.9832 C.3       7 UNK         0.0273 
     46 CB         25.0859    3.4698   -8.8340 C.3       7 UNK        -0.1935 
     47 C          26.9742    2.6828  -10.3224 C.2       7 UNK         0.5018 
     48 O          26.7857    3.3131  -11.3642 O.2       7 UNK        -0.5186 
     49 N          27.4480    1.4278  -10.2891 N.am      8 UNK        -0.4240 
     50 CA         27.6902    0.5964  -11.4673 C.3       8 UNK         0.0235 
     51 CB         26.8393   -0.6811  -11.3599 C.3       8 UNK        -0.2000 
     52 C          29.1692    0.2292  -11.6538 C.2       8 UNK         0.4941 
     53 O          29.6288    0.2255  -12.7974 O.2       8 UNK        -0.5273 
     54 N          29.8852   -0.1088  -10.5719 N.am      9 UNK        -0.4262 
     55 CA         31.2292   -0.6891  -10.6405 C.3       9 UNK         0.0264 
     56 CB         31.1014   -2.2074  -10.8886 C.3       9 UNK        -0.1955 
     57 C          32.0367   -0.4141   -9.3653 C.2       9 UNK         0.5031 
     58 O          31.4903    0.0990   -8.3864 O.2       9 UNK        -0.5390 
     59 N          33.3227   -0.8002   -9.4083 N.am      10 UNK        -0.4204 
     60 CA         34.3089   -0.8350   -8.3195 C.3       10 UNK         0.0237 
     61 CB         34.0378   -2.0438   -7.3965 C.3       10 UNK        -0.1985 
     62 C          34.4199    0.4977   -7.5588 C.2       10 UNK         0.4970 
     63 O          35.1372    1.3917   -8.0095 O.2       10 UNK        -0.4914 
     64 N          33.7027    0.5972   -6.4342 N.am      11 UNK        -0.4285 
     65 CA         33.5438    1.8024   -5.6104 C.3       11 UNK         0.1007 
     66 C          32.8895    3.0079   -6.3468 C.2       11 UNK         0.5703 
     67 N          32.1462    2.7922   -7.4246 N.am      11 UNK        -0.7361 
     68 O          33.0527    4.1492   -5.9223 O.2       11 UNK        -0.4986 
     69 C69        32.7481    1.4969   -4.3147 C.3       12 UNK        -0.0947 
     70 S70        33.4140    0.1062   -3.3369 S.3       12 UNK        -0.2240 
     71 C71        31.8827   -0.5871   -2.6296 C.3       12 UNK         0.0194 
     72 H72        22.1128   -4.4640   -3.3895 H         1 UNK         0.0906 
     73 H73        23.0343   -5.8924   -3.8628 H         1 UNK         0.0906 
     74 H74        22.1130   -5.8968   -2.3573 H         1 UNK         0.0906 
     75 H75        25.2306   -5.6154   -3.5277 H         1 UNK         0.3140 
     76 H76        26.3063   -4.5769   -1.0554 H         1 UNK         0.1085 
     77 H77        27.3241   -6.4329   -2.6537 H         1 UNK         0.0836 
     78 H78        27.9546   -5.1039   -3.5822 H         1 UNK         0.0836 
     79 H79        30.3607   -6.3101   -3.0982 H         1 UNK         0.0731 
     80 H80        31.3327   -5.6409   -1.8138 H         1 UNK         0.0731 
     81 H81        31.3862   -3.0416   -1.5575 H         1 UNK         0.1312 
     82 H82        31.2371   -0.9151   -5.2814 H         1 UNK         0.1406 
     83 H83        30.1278   -5.0510   -5.1252 H         1 UNK         0.1631 
     84 H84        31.1202   -3.5154   -7.3975 H         1 UNK         0.0717 
     85 H85        30.4087   -1.9288   -7.2341 H         1 UNK         0.0717 
     86 H86        26.9081   -3.4814   -5.7839 H         1 UNK         0.0934 
     87 H87        28.1632   -2.4346   -5.2169 H         1 UNK         0.0934 
     88 H88        26.4443   -1.8545   -7.6742 H         1 UNK         0.0739 
     89 H89        25.7213   -1.6611   -4.9693 H         1 UNK         0.3093 
     90 H90        22.9240    0.5187   -5.4927 H         1 UNK         0.0818 
     91 H91        21.8257   -1.5535   -4.6755 H         1 UNK         0.0819 
     92 H92        22.3380   -1.7482   -6.3439 H         1 UNK         0.0819 
     93 H93        23.2640   -2.4994   -5.0502 H         1 UNK         0.0819 
     94 H94        24.5330   -0.9782   -3.4446 H         1 UNK         0.3041 
     95 H95        25.0163    1.9483   -1.5657 H         1 UNK         0.0784 
     96 H96        22.7556    1.2885   -0.6991 H         1 UNK         0.0793 
     97 H97        23.2273   -0.4050   -0.7432 H         1 UNK         0.0793 
     98 H98        24.0405    0.7163    0.3504 H         1 UNK         0.0793 
     99 H99        25.7261   -0.6693   -0.8794 H         1 UNK         0.3024 
    100 H100       28.6103   -1.0625   -2.9295 H         1 UNK         0.1171 
    101 H101       29.6589   -1.2015   -0.6849 H         1 UNK         0.0786 
    102 H102       29.2249    0.4651   -1.0307 H         1 UNK         0.0786 
    103 H103       28.2332   -0.4884    0.0622 H         1 UNK         0.0786 
    104 H104       27.9466   -2.8565   -1.0557 H         1 UNK         0.2977 
    105 H105       27.5266    0.5320   -5.2093 H         1 UNK         0.3127 
    106 H106       29.8522    1.3837   -6.5955 H         1 UNK         0.0770 
    107 H107       28.1043    2.9548   -4.6328 H         1 UNK         0.0814 
    108 H108       29.7632    3.3346   -5.0755 H         1 UNK         0.0814 
    109 H109       29.4135    1.8634   -4.1829 H         1 UNK         0.0814 
    110 H110       26.5422    1.9561   -7.3911 H         1 UNK         0.2983 
    111 H111       27.0278    4.3659   -9.0029 H         1 UNK         0.0947 
    112 H112       24.6550    4.0453   -9.6544 H         1 UNK         0.0806 
    113 H113       24.8130    3.9748   -7.9072 H         1 UNK         0.0806 
    114 H114       24.6060    2.4903   -8.8370 H         1 UNK         0.0806 
    115 H115       27.6282    0.9890   -9.3902 H         1 UNK         0.3000 
    116 H116       27.3774    1.1230  -12.3715 H         1 UNK         0.0850 
    117 H117       26.9844   -1.3220  -12.2307 H         1 UNK         0.0810 
    118 H118       25.7766   -0.4448  -11.3046 H         1 UNK         0.0810 
    119 H119       27.0976   -1.2671  -10.4767 H         1 UNK         0.0810 
    120 H120       29.4700   -0.0742   -9.6411 H         1 UNK         0.3040 
    121 H121       31.7772   -0.2320  -11.4672 H         1 UNK         0.0766 
    122 H122       30.5575   -2.6976  -10.0796 H         1 UNK         0.0812 
    123 H123       32.0756   -2.6906  -10.9670 H         1 UNK         0.0812 
    124 H124       30.5707   -2.4156  -11.8178 H         1 UNK         0.0812 
    125 H125       33.6647   -1.1546  -10.2908 H         1 UNK         0.3205 
    126 H126       35.2807   -0.9976   -8.7885 H         1 UNK         0.0754 
    127 H127       34.1156   -2.9814   -7.9472 H         1 UNK         0.0769 
    128 H128       33.0449   -2.0085   -6.9523 H         1 UNK         0.0769 
    129 H129       34.7625   -2.0896   -6.5822 H         1 UNK         0.0769 
    130 H130       33.1403   -0.1933   -6.1640 H         1 UNK         0.2981 
    131 H131       34.5472    2.1208   -5.3224 H         1 UNK         0.0541 
    132 H132       31.9802    1.8453   -7.7531 H         1 UNK         0.3459 
    133 H133       31.6716    3.5637   -7.8670 H         1 UNK         0.3459 
    134 H134       31.7100    1.2826   -4.5699 H         1 UNK         0.0612 
    135 H135       32.7260    2.3740   -3.6651 H         1 UNK         0.0612 
    136 H136       32.0770   -0.8047   -1.5784 H         1 UNK         0.0624 
    137 H137       31.0904    0.1615   -2.6379 H         1 UNK         0.0624 
@<TRIPOS>BOND
     1    1    2 1    
     2    1   72 1    
     3    1   73 1    
     4    1   74 1    
     5    2    3 2    
     6    2    4 am   BACKBONE|DICT|INTERRES
     7    4    5 1    
     8    4   75 1    
     9    5    6 1    
    10    5   35 1    
    11    5   76 1    
    12    6    7 1    
    13    6   77 1    
    14    6   78 1    
    15    7    8 1    
    16    8    9 1    
    17    8   79 1    
    18    8   80 1    
    19    9   10 ar   
    20    9   14 ar   
    21   10   11 ar   
    22   10   81 1    
    23   11   12 ar   
    24   11   71 1    
    25   12   13 ar   
    26   12   82 1    
    27   13   14 ar   
    28   13   15 1    
    29   14   83 1    
    30   15   16 1    
    31   15   84 1    
    32   15   85 1    
    33   16   17 1    
    34   17   18 1    
    35   17   86 1    
    36   17   87 1    
    37   18   19 1    
    38   18   37 1    
    39   18   88 1    
    40   19   20 am   BACKBONE|DICT|INTERRES
    41   19   89 1    
    42   20   21 2    
    43   20   22 1    
    44   22   23 1    
    45   22   24 1    
    46   22   90 1    
    47   23   91 1    
    48   23   92 1    
    49   23   93 1    
    50   24   25 am   BACKBONE|DICT|INTERRES
    51   24   94 1    
    52   25   26 2    
    53   25   27 1    
    54   27   28 1    
    55   27   29 1    
    56   27   95 1    
    57   28   96 1    
    58   28   97 1    
    59   28   98 1    
    60   29   30 am   BACKBONE|DICT|INTERRES
    61   29   99 1    
    62   30   31 2    
    63   30   32 1    
    64   32   33 1    
    65   32   34 1    
    66   32  100 1    
    67   33  101 1    
    68   33  102 1    
    69   33  103 1    
    70   34   35 am   BACKBONE|DICT|INTERRES
    71   34  104 1    
    72   35   36 2    
    73   37   38 2    
    74   37   39 am   BACKBONE|DICT|INTERRES
    75   39   40 1    
    76   39  105 1    
    77   40   41 1    
    78   40   42 1    
    79   40  106 1    
    80   41  107 1    
    81   41  108 1    
    82   41  109 1    
    83   42   43 2    
    84   42   44 am   BACKBONE|DICT|INTERRES
    85   44   45 1    
    86   44  110 1    
    87   45   46 1    
    88   45   47 1    
    89   45  111 1    
    90   46  112 1    
    91   46  113 1    
    92   46  114 1    
    93   47   48 2    
    94   47   49 am   BACKBONE|DICT|INTERRES
    95   49   50 1    
    96   49  115 1    
    97   50   51 1    
    98   50   52 1    
    99   50  116 1    
   100   51  117 1    
   101   51  118 1    
   102   51  119 1    
   103   52   53 2    
   104   52   54 am   BACKBONE|DICT|INTERRES
   105   54   55 1    
   106   54  120 1    
   107   55   56 1    
   108   55   57 1    
   109   55  121 1    
   110   56  122 1    
   111   56  123 1    
   112   56  124 1    
   113   57   58 2    
   114   57   59 am   BACKBONE|DICT|INTERRES
   115   59   60 1    
   116   59  125 1    
   117   60   61 1    
   118   60   62 1    
   119   60  126 1    
   120   61  127 1    
   121   61  128 1    
   122   61  129 1    
   123   62   63 2    
   124   62   64 am   BACKBONE|DICT|INTERRES
   125   64   65 1    
   126   64  130 1    
   127   65   66 1    
   128   65   69 1    
   129   65  131 1    
   130   66   67 am   BACKBONE|DICT|INTERRES
   131   66   68 2    
   132   67  132 1    
   133   67  133 1    
   134   69   70 1    
   135   69  134 1    
   136   69  135 1    
   137   70   71 1    
   138   71  136 1    
   139   71  137 1    
@<TRIPOS>SUBSTRUCTURE
     1 UNK         1 GROUP             0       ****    0 ROOT    
