@<TRIPOS>MOLECULE
3R137
137   139    1
SMALL
USER_CHARGES


@<TRIPOS>ATOM
      1 CA         27.0367   -6.7793    0.5233 C.3       0 UNK        -0.2020 
      2 C          26.9553   -5.2886    0.8156 C.2       0 UNK         0.4855 
      3 O          26.1890   -4.8760    1.6864 O.2       0 UNK        -0.5197 
      4 N          27.7415   -4.4786    0.0947 N.am      1 UNK        -0.4892 
      5 CA         27.7890   -3.0158    0.2318 C.3       1 UNK         0.0835 
      6 C6         29.0569   -2.4153   -0.4217 C.3       12 UNK        -0.0855 
      7 S7         30.6025   -2.9593    0.3918 S.3       12 UNK        -0.2931 
      8 C8         31.1770   -4.3494   -0.6439 C.3       12 UNK         0.0378 
      9 C9         31.3650   -3.9513   -2.1005 C.ar      12 UNK        -0.0802 
     10 C10        32.4149   -3.1035   -2.4698 C.ar      12 UNK        -0.0944 
     11 C11        32.5632   -2.6951   -3.7986 C.ar      12 UNK        -0.0787 
     12 C12        31.6512   -3.1488   -4.7573 C.ar      12 UNK        -0.0862 
     13 C13        30.6029   -4.0006   -4.4035 C.ar      12 UNK        -0.0733 
     14 C14        30.4727   -4.4111   -3.0751 C.ar      12 UNK        -0.0832 
     15 C15        29.5947   -4.4504   -5.4520 C.3       12 UNK         0.0240 
     16 S16        27.9988   -3.5919   -5.2615 S.3       12 UNK        -0.2522 
     17 C17        28.4668   -1.8487   -5.5443 C.3       12 UNK        -0.0967 
     18 CA         27.6877   -1.1965   -6.7085 C.3       5 UNK         0.0660 
     19 N          26.2384   -1.2294   -6.4914 N.am      5 UNK        -0.4015 
     20 C          25.3233   -0.9397   -7.4285 C.2       4 UNK         0.4946 
     21 O          25.6062   -0.6257   -8.5835 O.2       4 UNK        -0.5353 
     22 CA         23.8439   -0.9550   -7.0033 C.3       4 UNK         0.0277 
     23 CB         23.2522   -2.3624   -7.1787 C.3       4 UNK        -0.1981 
     24 N          23.6262   -0.5034   -5.6277 N.am      4 UNK        -0.4209 
     25 C          23.9922    0.6895   -5.1357 C.2       3 UNK         0.4942 
     26 O          24.4885    1.5853   -5.8181 O.2       3 UNK        -0.5208 
     27 CA         23.8357    0.8998   -3.6188 C.3       3 UNK         0.0250 
     28 CB         22.5459    1.6787   -3.3169 C.3       3 UNK        -0.1990 
     29 N          23.8515   -0.3441   -2.8366 N.am      3 UNK        -0.4232 
     30 C          24.8757   -1.2086   -2.7858 C.2       2 UNK         0.4993 
     31 O          25.9238   -1.0682   -3.4208 O.2       2 UNK        -0.5286 
     32 CA         24.6487   -2.4834   -1.9579 C.3       2 UNK         0.0209 
     33 CB         24.0924   -3.6016   -2.8557 C.3       2 UNK        -0.1931 
     34 N          25.8756   -2.9601   -1.3187 N.am      2 UNK        -0.4546 
     35 C          26.5191   -2.3335   -0.3228 C.2       1 UNK         0.5154 
     36 O          26.1355   -1.2740    0.1765 O.2       1 UNK        -0.5181 
     37 C          28.1966    0.2394   -6.9432 C.2       5 UNK         0.5014 
     38 O          29.0842    0.4418   -7.7754 O.2       5 UNK        -0.5248 
     39 N          27.6195    1.2063   -6.2145 N.am      6 UNK        -0.4434 
     40 CA         27.9024    2.6336   -6.3590 C.3       6 UNK         0.0363 
     41 CB         27.4210    3.3918   -5.1117 C.3       6 UNK        -0.1936 
     42 C          27.2701    3.2107   -7.6337 C.2       6 UNK         0.5081 
     43 O          27.9206    3.9975   -8.3193 O.2       6 UNK        -0.5248 
     44 N          26.0398    2.7821   -7.9541 N.am      7 UNK        -0.4718 
     45 CA         25.3211    3.1454   -9.1803 C.3       7 UNK         0.0273 
     46 CB         23.8759    2.6292   -9.1067 C.3       7 UNK        -0.1935 
     47 C          26.0188    2.6368  -10.4541 C.2       7 UNK         0.5018 
     48 O          26.1077    3.3795  -11.4323 O.2       7 UNK        -0.5186 
     49 N          26.5350    1.4001  -10.4061 N.am      8 UNK        -0.4240 
     50 CA         27.3719    0.8041  -11.4521 C.3       8 UNK         0.0235 
     51 CB         27.4369   -0.7171  -11.2358 C.3       8 UNK        -0.2000 
     52 C          28.7969    1.3872  -11.5048 C.2       8 UNK         0.4941 
     53 O          29.4770    1.1965  -12.5137 O.2       8 UNK        -0.5273 
     54 N          29.2233    2.0586  -10.4232 N.am      9 UNK        -0.4262 
     55 CA         30.5554    2.6195  -10.1751 C.3       9 UNK         0.0264 
     56 CB         30.8420    3.7996  -11.1276 C.3       9 UNK        -0.1955 
     57 C          31.6509    1.5369  -10.1951 C.2       9 UNK         0.5031 
     58 O          32.6831    1.7137  -10.8457 O.2       9 UNK        -0.5390 
     59 N          31.3885    0.4227   -9.4958 N.am      10 UNK        -0.4204 
     60 CA         32.2610   -0.7533   -9.4377 C.3       10 UNK         0.0237 
     61 CB         31.5116   -1.9129   -8.7581 C.3       10 UNK        -0.1985 
     62 C          33.6007   -0.4688   -8.7376 C.2       10 UNK         0.4970 
     63 O          34.6570   -0.7670   -9.2965 O.2       10 UNK        -0.4914 
     64 N          33.5198    0.1138   -7.5375 N.am      11 UNK        -0.4285 
     65 CA         34.6565    0.4911   -6.6819 C.3       11 UNK         0.1007 
     66 C          34.2798    1.5481   -5.6021 C.2       11 UNK         0.5703 
     67 N          33.1398    2.2245   -5.7019 N.am      11 UNK        -0.7361 
     68 O          35.0358    1.7787   -4.6618 O.2       11 UNK        -0.4986 
     69 C69        35.4831   -0.7223   -6.1363 C.3       12 UNK        -0.0947 
     70 S70        34.5389   -2.2237   -5.7001 S.3       12 UNK        -0.2240 
     71 C71        33.6656   -1.7161   -4.1853 C.3       12 UNK         0.0194 
     72 H72        27.7594   -7.0045   -0.2608 H         1 UNK         0.0906 
     73 H73        26.0636   -7.1525    0.2048 H         1 UNK         0.0906 
     74 H74        27.3319   -7.3216    1.4213 H         1 UNK         0.0906 
     75 H75        28.3604   -4.8742   -0.5959 H         1 UNK         0.3140 
     76 H76        27.8213   -2.7839    1.2991 H         1 UNK         0.1085 
     77 H77        29.0349   -1.3261   -0.3458 H         1 UNK         0.0836 
     78 H78        29.0823   -2.6288   -1.4906 H         1 UNK         0.0836 
     79 H79        32.1272   -4.7106   -0.2478 H         1 UNK         0.0731 
     80 H80        30.4793   -5.1825   -0.5530 H         1 UNK         0.0731 
     81 H81        33.0981   -2.7411   -1.7135 H         1 UNK         0.1312 
     82 H82        31.7506   -2.8244   -5.7830 H         1 UNK         0.1406 
     83 H83        29.6551   -5.0633   -2.8011 H         1 UNK         0.1631 
     84 H84        29.4324   -5.5254   -5.3626 H         1 UNK         0.0717 
     85 H85        29.9767   -4.2807   -6.4602 H         1 UNK         0.0717 
     86 H86        28.3074   -1.3035   -4.6119 H         1 UNK         0.0934 
     87 H87        29.5356   -1.7854   -5.7449 H         1 UNK         0.0934 
     88 H88        27.8984   -1.7640   -7.6178 H         1 UNK         0.0739 
     89 H89        25.9389   -1.4433   -5.5468 H         1 UNK         0.3093 
     90 H90        23.3034   -0.2723   -7.6608 H         1 UNK         0.0818 
     91 H91        23.3834   -2.7144   -8.2031 H         1 UNK         0.0819 
     92 H92        23.7317   -3.0888   -6.5210 H         1 UNK         0.0819 
     93 H93        22.1823   -2.3733   -6.9700 H         1 UNK         0.0819 
     94 H94        23.2148   -1.1694   -4.9913 H         1 UNK         0.3041 
     95 H95        24.6848    1.5033   -3.2909 H         1 UNK         0.0784 
     96 H96        22.5211    2.6202   -3.8678 H         1 UNK         0.0793 
     97 H97        21.6562    1.1136   -3.5980 H         1 UNK         0.0793 
     98 H98        22.4685    1.9247   -2.2576 H         1 UNK         0.0793 
     99 H99        23.0197   -0.5433   -2.2987 H         1 UNK         0.3024 
    100 H100       23.9237   -2.2676   -1.1696 H         1 UNK         0.1171 
    101 H101       23.1514   -3.3036   -3.3199 H         1 UNK         0.0786 
    102 H102       24.7863   -3.8562   -3.6587 H         1 UNK         0.0786 
    103 H103       23.8944   -4.5084   -2.2838 H         1 UNK         0.0786 
    104 H104       26.2752   -3.8131   -1.6799 H         1 UNK         0.2977 
    105 H105       26.8741    0.9542   -5.5805 H         1 UNK         0.3127 
    106 H106       28.9845    2.7620   -6.4353 H         1 UNK         0.0770 
    107 H107       26.3419    3.3142   -4.9766 H         1 UNK         0.0814 
    108 H108       27.6623    4.4530   -5.1868 H         1 UNK         0.0814 
    109 H109       27.9004    3.0144   -4.2085 H         1 UNK         0.0814 
    110 H110       25.5469    2.1875   -7.2920 H         1 UNK         0.2983 
    111 H111       25.2916    4.2359   -9.2331 H         1 UNK         0.0947 
    112 H112       23.8382    1.5404   -9.0874 H         1 UNK         0.0806 
    113 H113       23.3008    2.9589   -9.9729 H         1 UNK         0.0806 
    114 H114       23.3655    2.9987   -8.2170 H         1 UNK         0.0806 
    115 H115       26.3359    0.8157   -9.5967 H         1 UNK         0.3000 
    116 H116       26.9023    0.9953  -12.4193 H         1 UNK         0.0850 
    117 H117       28.0247   -1.2007  -12.0172 H         1 UNK         0.0810 
    118 H118       26.4425   -1.1635  -11.2552 H         1 UNK         0.0810 
    119 H119       27.8970   -0.9669  -10.2785 H         1 UNK         0.0810 
    120 H120       28.5743    2.1502   -9.6530 H         1 UNK         0.3040 
    121 H121       30.5347    3.0149   -9.1584 H         1 UNK         0.0766 
    122 H122       30.9159    3.4753  -12.1660 H         1 UNK         0.0812 
    123 H123       31.7831    4.2877  -10.8717 H         1 UNK         0.0812 
    124 H124       30.0581    4.5546  -11.0664 H         1 UNK         0.0812 
    125 H125       30.5166    0.3797   -8.9692 H         1 UNK         0.3205 
    126 H126       32.4846   -1.0519  -10.4641 H         1 UNK         0.0754 
    127 H127       32.1510   -2.7916   -8.6611 H         1 UNK         0.0769 
    128 H128       30.6373   -2.2099   -9.3379 H         1 UNK         0.0769 
    129 H129       31.1691   -1.6428   -7.7593 H         1 UNK         0.0769 
    130 H130       32.6075    0.2961   -7.1487 H         1 UNK         0.2981 
    131 H131       35.3348    1.0516   -7.3278 H         1 UNK         0.0541 
    132 H132       32.5358    2.1343   -6.5005 H         1 UNK         0.3459 
    133 H133       32.9244    2.9056   -4.9908 H         1 UNK         0.3459 
    134 H134       36.1142   -0.4453   -5.2905 H         1 UNK         0.0612 
    135 H135       36.1848   -1.0307   -6.9124 H         1 UNK         0.0612 
    136 H136       33.2042   -0.7410   -4.3348 H         1 UNK         0.0624 
    137 H137       34.3930   -1.6037   -3.3800 H         1 UNK         0.0624 
@<TRIPOS>BOND
     1    1    2 1    
     2    1   72 1    
     3    1   73 1    
     4    1   74 1    
     5    2    3 2    
     6    2    4 am   BACKBONE|DICT|INTERRES
     7    4    5 1    
     8    4   75 1    
     9    5    6 1    
    10    5   35 1    
    11    5   76 1    
    12    6    7 1    
    13    6   77 1    
    14    6   78 1    
    15    7    8 1    
    16    8    9 1    
    17    8   79 1    
    18    8   80 1    
    19    9   10 ar   
    20    9   14 ar   
    21   10   11 ar   
    22   10   81 1    
    23   11   12 ar   
    24   11   71 1    
    25   12   13 ar   
    26   12   82 1    
    27   13   14 ar   
    28   13   15 1    
    29   14   83 1    
    30   15   16 1    
    31   15   84 1    
    32   15   85 1    
    33   16   17 1    
    34   17   18 1    
    35   17   86 1    
    36   17   87 1    
    37   18   19 1    
    38   18   37 1    
    39   18   88 1    
    40   19   20 am   BACKBONE|DICT|INTERRES
    41   19   89 1    
    42   20   21 2    
    43   20   22 1    
    44   22   23 1    
    45   22   24 1    
    46   22   90 1    
    47   23   91 1    
    48   23   92 1    
    49   23   93 1    
    50   24   25 am   BACKBONE|DICT|INTERRES
    51   24   94 1    
    52   25   26 2    
    53   25   27 1    
    54   27   28 1    
    55   27   29 1    
    56   27   95 1    
    57   28   96 1    
    58   28   97 1    
    59   28   98 1    
    60   29   30 am   BACKBONE|DICT|INTERRES
    61   29   99 1    
    62   30   31 2    
    63   30   32 1    
    64   32   33 1    
    65   32   34 1    
    66   32  100 1    
    67   33  101 1    
    68   33  102 1    
    69   33  103 1    
    70   34   35 am   BACKBONE|DICT|INTERRES
    71   34  104 1    
    72   35   36 2    
    73   37   38 2    
    74   37   39 am   BACKBONE|DICT|INTERRES
    75   39   40 1    
    76   39  105 1    
    77   40   41 1    
    78   40   42 1    
    79   40  106 1    
    80   41  107 1    
    81   41  108 1    
    82   41  109 1    
    83   42   43 2    
    84   42   44 am   BACKBONE|DICT|INTERRES
    85   44   45 1    
    86   44  110 1    
    87   45   46 1    
    88   45   47 1    
    89   45  111 1    
    90   46  112 1    
    91   46  113 1    
    92   46  114 1    
    93   47   48 2    
    94   47   49 am   BACKBONE|DICT|INTERRES
    95   49   50 1    
    96   49  115 1    
    97   50   51 1    
    98   50   52 1    
    99   50  116 1    
   100   51  117 1    
   101   51  118 1    
   102   51  119 1    
   103   52   53 2    
   104   52   54 am   BACKBONE|DICT|INTERRES
   105   54   55 1    
   106   54  120 1    
   107   55   56 1    
   108   55   57 1    
   109   55  121 1    
   110   56  122 1    
   111   56  123 1    
   112   56  124 1    
   113   57   58 2    
   114   57   59 am   BACKBONE|DICT|INTERRES
   115   59   60 1    
   116   59  125 1    
   117   60   61 1    
   118   60   62 1    
   119   60  126 1    
   120   61  127 1    
   121   61  128 1    
   122   61  129 1    
   123   62   63 2    
   124   62   64 am   BACKBONE|DICT|INTERRES
   125   64   65 1    
   126   64  130 1    
   127   65   66 1    
   128   65   69 1    
   129   65  131 1    
   130   66   67 am   BACKBONE|DICT|INTERRES
   131   66   68 2    
   132   67  132 1    
   133   67  133 1    
   134   69   70 1    
   135   69  134 1    
   136   69  135 1    
   137   70   71 1    
   138   71  136 1    
   139   71  137 1    
@<TRIPOS>SUBSTRUCTURE
     1 UNK         1 GROUP             0       ****    0 ROOT    
