@<TRIPOS>MOLECULE
3R137
137   139    1
SMALL
USER_CHARGES


@<TRIPOS>ATOM
      1 CA         23.7506   -6.3177   -2.9907 C.3       0 UNK        -0.2020 
      2 C          24.7088   -5.5456   -2.0968 C.2       0 UNK         0.4855 
      3 O          24.3478   -5.1871   -0.9753 O.2       0 UNK        -0.5197 
      4 N          25.9254   -5.2723   -2.5863 N.am      1 UNK        -0.4892 
      5 CA         26.9752   -4.5152   -1.8935 C.3       1 UNK         0.0835 
      6 C6         28.3741   -4.8784   -2.4669 C.3       12 UNK        -0.0855 
      7 S7         29.7270   -4.6034   -1.2766 S.3       12 UNK        -0.2931 
      8 C8         31.1337   -4.2247   -2.3846 C.3       12 UNK         0.0378 
      9 C9         31.0740   -2.8253   -2.9918 C.ar      12 UNK        -0.0802 
     10 C10        31.3277   -2.6291   -4.3554 C.ar      12 UNK        -0.0944 
     11 C11        31.2618   -1.3468   -4.9148 C.ar      12 UNK        -0.0787 
     12 C12        30.9436   -0.2587   -4.0976 C.ar      12 UNK        -0.0862 
     13 C13        30.6936   -0.4394   -2.7378 C.ar      12 UNK        -0.0733 
     14 C14        30.7788   -1.7201   -2.1883 C.ar      12 UNK        -0.0832 
     15 C15        30.2936    0.7326   -1.8596 C.3       12 UNK         0.0240 
     16 S16        28.5344    0.6112   -1.4205 S.3       12 UNK        -0.2522 
     17 C17        27.7370    1.8223   -2.5216 C.3       12 UNK        -0.0967 
     18 CA         27.8532    1.5779   -4.0524 C.3       5 UNK         0.0660 
     19 N          27.5298    0.2129   -4.4935 N.am      5 UNK        -0.4015 
     20 C          27.6599   -0.2274   -5.7591 C.2       4 UNK         0.4946 
     21 O          28.1823    0.4217   -6.6659 O.2       4 UNK        -0.5353 
     22 CA         27.0569   -1.5966   -6.1079 C.3       4 UNK         0.0277 
     23 CB         28.0691   -2.7283   -5.8817 C.3       4 UNK        -0.1981 
     24 N          25.8336   -1.8563   -5.3511 N.am      4 UNK        -0.4209 
     25 C          24.6562   -1.2641   -5.6002 C.2       3 UNK         0.4942 
     26 O          24.4725   -0.4741   -6.5253 O.2       3 UNK        -0.5208 
     27 CA         23.4994   -1.5713   -4.6327 C.3       3 UNK         0.0250 
     28 CB         22.7409   -2.8300   -5.0825 C.3       3 UNK        -0.1990 
     29 N          23.9465   -1.7412   -3.2489 N.am      3 UNK        -0.4232 
     30 C          24.5198   -0.7805   -2.5103 C.2       2 UNK         0.4993 
     31 O          24.6525    0.3838   -2.8890 O.2       2 UNK        -0.5286 
     32 CA         25.0991   -1.2140   -1.1512 C.3       2 UNK         0.0209 
     33 CB         24.0363   -1.0935   -0.0483 C.3       2 UNK        -0.1931 
     34 N          25.6470   -2.5783   -1.1582 N.am      2 UNK        -0.4546 
     35 C          26.6458   -3.0056   -1.9456 C.2       1 UNK         0.5154 
     36 O          27.2095   -2.2746   -2.7587 O.2       1 UNK        -0.5181 
     37 C          26.9884    2.6186   -4.7884 C.2       5 UNK         0.5014 
     38 O          27.5260    3.6014   -5.2993 O.2       5 UNK        -0.5248 
     39 N          25.6691    2.3744   -4.8295 N.am      6 UNK        -0.4434 
     40 CA         24.6821    3.2230   -5.5008 C.3       6 UNK         0.0363 
     41 CB         23.2658    2.7265   -5.1685 C.3       6 UNK        -0.1936 
     42 C          24.8911    3.3034   -7.0225 C.2       6 UNK         0.5081 
     43 O          24.7956    4.3927   -7.5888 O.2       6 UNK        -0.5248 
     44 N          25.1844    2.1586   -7.6538 N.am      7 UNK        -0.4718 
     45 CA         25.4800    2.0599   -9.0853 C.3       7 UNK         0.0273 
     46 CB         25.3508    0.5917   -9.5220 C.3       7 UNK        -0.1935 
     47 C          26.8683    2.6021   -9.4707 C.2       7 UNK         0.5018 
     48 O          27.0502    2.9898  -10.6254 O.2       7 UNK        -0.5186 
     49 N          27.8167    2.5823   -8.5201 N.am      8 UNK        -0.4240 
     50 CA         29.2572    2.8199   -8.6841 C.3       8 UNK         0.0235 
     51 CB         29.5457    4.2846   -9.0741 C.3       8 UNK        -0.2000 
     52 C          29.8727    1.7928   -9.6533 C.2       8 UNK         0.4941 
     53 O          30.5360    2.1641  -10.6249 O.2       8 UNK        -0.5273 
     54 N          29.5838    0.5098   -9.3954 N.am      9 UNK        -0.4262 
     55 CA         29.8468   -0.6290  -10.2815 C.3       9 UNK         0.0264 
     56 CB         28.9457   -1.8011   -9.8505 C.3       9 UNK        -0.1955 
     57 C          31.3349   -1.0300  -10.3701 C.2       9 UNK         0.5031 
     58 O          31.6846   -2.1631  -10.0302 O.2       9 UNK        -0.5390 
     59 N          32.1817   -0.0960  -10.8267 N.am      10 UNK        -0.4204 
     60 CA         33.6357   -0.1726  -11.0551 C.3       10 UNK         0.0237 
     61 CB         33.9915   -1.2482  -12.1006 C.3       10 UNK        -0.1985 
     62 C          34.4708   -0.3386   -9.7720 C.2       10 UNK         0.4970 
     63 O          35.3944    0.4455   -9.5489 O.2       10 UNK        -0.4914 
     64 N          34.0982   -1.3208   -8.9468 N.am      11 UNK        -0.4285 
     65 CA         34.5894   -1.5795   -7.5866 C.3       11 UNK         0.1007 
     66 C          36.0883   -2.0036   -7.5285 C.2       11 UNK         0.5703 
     67 N          36.7279   -1.9318   -6.3679 N.am      11 UNK        -0.7361 
     68 O          36.6700   -2.4527   -8.5152 O.2       11 UNK        -0.4986 
     69 C69        34.2098   -0.4463   -6.5794 C.3       12 UNK        -0.0947 
     70 S70        32.5414    0.2643   -6.8145 S.3       12 UNK        -0.2240 
     71 C71        31.4565   -1.1430   -6.4121 C.3       12 UNK         0.0194 
     72 H72        22.8399   -5.7413   -3.1516 H         1 UNK         0.0906 
     73 H73        24.1876   -6.5398   -3.9641 H         1 UNK         0.0906 
     74 H74        23.4769   -7.2610   -2.5186 H         1 UNK         0.0906 
     75 H75        26.1594   -5.5831   -3.5189 H         1 UNK         0.3140 
     76 H76        26.9605   -4.8138   -0.8423 H         1 UNK         0.1085 
     77 H77        28.4069   -5.9402   -2.7168 H         1 UNK         0.0836 
     78 H78        28.5792   -4.3565   -3.4010 H         1 UNK         0.0836 
     79 H79        31.1836   -4.9857   -3.1651 H         1 UNK         0.0731 
     80 H80        32.0585   -4.3100   -1.8127 H         1 UNK         0.0731 
     81 H81        31.5556   -3.4773   -4.9861 H         1 UNK         0.1312 
     82 H82        30.8731    0.7284   -4.5305 H         1 UNK         0.1406 
     83 H83        30.5767   -1.8591   -1.1351 H         1 UNK         0.1631 
     84 H84        30.5017    1.6867   -2.3460 H         1 UNK         0.0717 
     85 H85        30.8884    0.7167   -0.9453 H         1 UNK         0.0717 
     86 H86        26.6899    1.8619   -2.2172 H         1 UNK         0.0934 
     87 H87        28.1440    2.8051   -2.2748 H         1 UNK         0.0934 
     88 H88        28.8859    1.7686   -4.3437 H         1 UNK         0.0739 
     89 H89        27.1833   -0.4270   -3.7871 H         1 UNK         0.3093 
     90 H90        26.7987   -1.5896   -7.1690 H         1 UNK         0.0818 
     91 H91        28.8771   -2.6800   -6.6093 H         1 UNK         0.0819 
     92 H92        28.5292   -2.6613   -4.8978 H         1 UNK         0.0819 
     93 H93        27.6078   -3.7109   -5.9782 H         1 UNK         0.0819 
     94 H94        25.9366   -2.4150   -4.5147 H         1 UNK         0.3041 
     95 H95        22.8105   -0.7244   -4.6607 H         1 UNK         0.0784 
     96 H96        22.3741   -2.7180   -6.1040 H         1 UNK         0.0793 
     97 H97        23.3756   -3.7168   -5.0601 H         1 UNK         0.0793 
     98 H98        21.8745   -3.0198   -4.4486 H         1 UNK         0.0793 
     99 H99        23.8681   -2.6643   -2.8485 H         1 UNK         0.3024 
    100 H100       25.9155   -0.5299   -0.9156 H         1 UNK         0.1171 
    101 H101       24.4600   -1.3021    0.9343 H         1 UNK         0.0786 
    102 H102       23.6232   -0.0842   -0.0134 H         1 UNK         0.0786 
    103 H103       23.2056   -1.7818   -0.2092 H         1 UNK         0.0786 
    104 H104       25.1667   -3.2725   -0.5959 H         1 UNK         0.2977 
    105 H105       25.3107    1.5669   -4.3252 H         1 UNK         0.3127 
    106 H106       24.7905    4.2327   -5.0992 H         1 UNK         0.0770 
    107 H107       23.0961    1.7135   -5.5344 H         1 UNK         0.0814 
    108 H108       22.5109    3.3686   -5.6239 H         1 UNK         0.0814 
    109 H109       23.0872    2.7269   -4.0930 H         1 UNK         0.0814 
    110 H110       25.1625    1.2883   -7.1291 H         1 UNK         0.2983 
    111 H111       24.7369    2.6457   -9.6312 H         1 UNK         0.0947 
    112 H112       25.5503    0.4792  -10.5886 H         1 UNK         0.0806 
    113 H113       24.3465    0.2100   -9.3374 H         1 UNK         0.0806 
    114 H114       26.0540   -0.0477   -8.9879 H         1 UNK         0.0806 
    115 H115       27.5592    2.1851   -7.6232 H         1 UNK         0.3000 
    116 H116       29.7130    2.6393   -7.7089 H         1 UNK         0.0850 
    117 H117       30.6191    4.4767   -9.0911 H         1 UNK         0.0810 
    118 H118       29.1021    4.9775   -8.3591 H         1 UNK         0.0810 
    119 H119       29.1577    4.5284  -10.0635 H         1 UNK         0.0810 
    120 H120       29.0690    0.3152   -8.5419 H         1 UNK         0.3040 
    121 H121       29.5425   -0.3411  -11.2901 H         1 UNK         0.0766 
    122 H122       27.8924   -1.5219   -9.8636 H         1 UNK         0.0812 
    123 H123       29.1914   -2.1459   -8.8469 H         1 UNK         0.0812 
    124 H124       29.0612   -2.6516  -10.5237 H         1 UNK         0.0812 
    125 H125       31.7667    0.8224  -10.9820 H         1 UNK         0.3205 
    126 H126       33.9112    0.7939  -11.4802 H         1 UNK         0.0754 
    127 H127       35.0597   -1.2361  -12.3213 H         1 UNK         0.0769 
    128 H128       33.4646   -1.0767  -13.0392 H         1 UNK         0.0769 
    129 H129       33.7446   -2.2532  -11.7571 H         1 UNK         0.0769 
    130 H130       33.3052   -1.8837   -9.2463 H         1 UNK         0.2981 
    131 H131       34.0555   -2.4771   -7.2763 H         1 UNK         0.0541 
    132 H132       36.2690   -1.5876   -5.5395 H         1 UNK         0.3459 
    133 H133       37.6914   -2.2249   -6.3223 H         1 UNK         0.3459 
    134 H134       34.9188    0.3792   -6.6625 H         1 UNK         0.0612 
    135 H135       34.2795   -0.8083   -5.5525 H         1 UNK         0.0612 
    136 H136       30.4837   -0.9432   -6.8584 H         1 UNK         0.0624 
    137 H137       31.8242   -2.0494   -6.8925 H         1 UNK         0.0624 
@<TRIPOS>BOND
     1    1    2 1    
     2    1   72 1    
     3    1   73 1    
     4    1   74 1    
     5    2    3 2    
     6    2    4 am   BACKBONE|DICT|INTERRES
     7    4    5 1    
     8    4   75 1    
     9    5    6 1    
    10    5   35 1    
    11    5   76 1    
    12    6    7 1    
    13    6   77 1    
    14    6   78 1    
    15    7    8 1    
    16    8    9 1    
    17    8   79 1    
    18    8   80 1    
    19    9   10 ar   
    20    9   14 ar   
    21   10   11 ar   
    22   10   81 1    
    23   11   12 ar   
    24   11   71 1    
    25   12   13 ar   
    26   12   82 1    
    27   13   14 ar   
    28   13   15 1    
    29   14   83 1    
    30   15   16 1    
    31   15   84 1    
    32   15   85 1    
    33   16   17 1    
    34   17   18 1    
    35   17   86 1    
    36   17   87 1    
    37   18   19 1    
    38   18   37 1    
    39   18   88 1    
    40   19   20 am   BACKBONE|DICT|INTERRES
    41   19   89 1    
    42   20   21 2    
    43   20   22 1    
    44   22   23 1    
    45   22   24 1    
    46   22   90 1    
    47   23   91 1    
    48   23   92 1    
    49   23   93 1    
    50   24   25 am   BACKBONE|DICT|INTERRES
    51   24   94 1    
    52   25   26 2    
    53   25   27 1    
    54   27   28 1    
    55   27   29 1    
    56   27   95 1    
    57   28   96 1    
    58   28   97 1    
    59   28   98 1    
    60   29   30 am   BACKBONE|DICT|INTERRES
    61   29   99 1    
    62   30   31 2    
    63   30   32 1    
    64   32   33 1    
    65   32   34 1    
    66   32  100 1    
    67   33  101 1    
    68   33  102 1    
    69   33  103 1    
    70   34   35 am   BACKBONE|DICT|INTERRES
    71   34  104 1    
    72   35   36 2    
    73   37   38 2    
    74   37   39 am   BACKBONE|DICT|INTERRES
    75   39   40 1    
    76   39  105 1    
    77   40   41 1    
    78   40   42 1    
    79   40  106 1    
    80   41  107 1    
    81   41  108 1    
    82   41  109 1    
    83   42   43 2    
    84   42   44 am   BACKBONE|DICT|INTERRES
    85   44   45 1    
    86   44  110 1    
    87   45   46 1    
    88   45   47 1    
    89   45  111 1    
    90   46  112 1    
    91   46  113 1    
    92   46  114 1    
    93   47   48 2    
    94   47   49 am   BACKBONE|DICT|INTERRES
    95   49   50 1    
    96   49  115 1    
    97   50   51 1    
    98   50   52 1    
    99   50  116 1    
   100   51  117 1    
   101   51  118 1    
   102   51  119 1    
   103   52   53 2    
   104   52   54 am   BACKBONE|DICT|INTERRES
   105   54   55 1    
   106   54  120 1    
   107   55   56 1    
   108   55   57 1    
   109   55  121 1    
   110   56  122 1    
   111   56  123 1    
   112   56  124 1    
   113   57   58 2    
   114   57   59 am   BACKBONE|DICT|INTERRES
   115   59   60 1    
   116   59  125 1    
   117   60   61 1    
   118   60   62 1    
   119   60  126 1    
   120   61  127 1    
   121   61  128 1    
   122   61  129 1    
   123   62   63 2    
   124   62   64 am   BACKBONE|DICT|INTERRES
   125   64   65 1    
   126   64  130 1    
   127   65   66 1    
   128   65   69 1    
   129   65  131 1    
   130   66   67 am   BACKBONE|DICT|INTERRES
   131   66   68 2    
   132   67  132 1    
   133   67  133 1    
   134   69   70 1    
   135   69  134 1    
   136   69  135 1    
   137   70   71 1    
   138   71  136 1    
   139   71  137 1    
@<TRIPOS>SUBSTRUCTURE
     1 UNK         1 GROUP             0       ****    0 ROOT    
