@<TRIPOS>MOLECULE
3R137
137   139    1
SMALL
USER_CHARGES


@<TRIPOS>ATOM
      1 CA         26.4783   -4.7569   -8.5671 C.3       0 UNK        -0.2020 
      2 C          26.1598   -5.0724   -7.1140 C.2       0 UNK         0.4855 
      3 O          25.8054   -6.2079   -6.7976 O.2       0 UNK        -0.5197 
      4 N          26.2890   -4.0769   -6.2267 N.am      1 UNK        -0.4892 
      5 CA         26.0931   -4.2058   -4.7743 C.3       1 UNK         0.0835 
      6 C6         26.5941   -2.9584   -4.0016 C.3       12 UNK        -0.0855 
      7 S7         28.2356   -2.3724   -4.5234 S.3       12 UNK        -0.2931 
      8 C8         29.3272   -3.1346   -3.2873 C.3       12 UNK         0.0378 
      9 C9         30.6534   -2.3965   -3.2643 C.ar      12 UNK        -0.0802 
     10 C10        31.7564   -2.8736   -3.9761 C.ar      12 UNK        -0.0944 
     11 C11        32.9530   -2.1478   -3.9986 C.ar      12 UNK        -0.0787 
     12 C12        33.0283   -0.9308   -3.3093 C.ar      12 UNK        -0.0862 
     13 C13        31.9335   -0.4458   -2.5844 C.ar      12 UNK        -0.0733 
     14 C14        30.7588   -1.2039   -2.5481 C.ar      12 UNK        -0.0832 
     15 C15        32.0576    0.8771   -1.8266 C.3       12 UNK         0.0240 
     16 S16        30.4849    1.7851   -1.5913 S.3       12 UNK        -0.2522 
     17 C17        30.0677    2.2695   -3.2997 C.3       12 UNK        -0.0967 
     18 CA         28.8389    1.5180   -3.8753 C.3       5 UNK         0.0660 
     19 N          27.6393    1.6945   -3.0377 N.am      5 UNK        -0.4015 
     20 C          26.3858    1.2973   -3.3112 C.2       4 UNK         0.4946 
     21 O          26.0419    0.7728   -4.3738 O.2       4 UNK        -0.5353 
     22 CA         25.3309    1.6082   -2.2322 C.3       4 UNK         0.0277 
     23 CB         25.1182    3.1275   -2.1018 C.3       4 UNK        -0.1981 
     24 N          24.0384    0.9868   -2.5325 N.am      4 UNK        -0.4209 
     25 C          23.7635   -0.3186   -2.4207 C.2       3 UNK         0.4942 
     26 O          24.5462   -1.1431   -1.9444 O.2       3 UNK        -0.5208 
     27 CA         22.3927   -0.7972   -2.9272 C.3       3 UNK         0.0250 
     28 CB         21.5591    0.2796   -3.6578 C.3       3 UNK        -0.1990 
     29 N          22.6126   -1.9368   -3.8112 N.am      3 UNK        -0.4232 
     30 C          21.7828   -2.9717   -3.9884 C.2       2 UNK         0.4993 
     31 O          20.6885   -3.0755   -3.4326 O.2       2 UNK        -0.5286 
     32 CA         22.2402   -4.0777   -4.9600 C.3       2 UNK         0.0209 
     33 CB         21.4875   -3.9630   -6.2962 C.3       2 UNK        -0.1931 
     34 N          23.6819   -4.0491   -5.2263 N.am      2 UNK        -0.4546 
     35 C          24.6267   -4.4806   -4.3780 C.2       1 UNK         0.5154 
     36 O          24.3790   -5.0378   -3.3079 O.2       1 UNK        -0.5181 
     37 C          28.6545    1.9100   -5.3546 C.2       5 UNK         0.5014 
     38 O          29.2467    1.2717   -6.2268 O.2       5 UNK        -0.5248 
     39 N          27.8213    2.9276   -5.6168 N.am      6 UNK        -0.4434 
     40 CA         27.4399    3.4016   -6.9488 C.3       6 UNK         0.0363 
     41 CB         26.4708    4.5853   -6.8047 C.3       6 UNK        -0.1936 
     42 C          26.8293    2.3192   -7.8590 C.2       6 UNK         0.5081 
     43 O          26.9888    2.4149   -9.0753 O.2       6 UNK        -0.5248 
     44 N          26.1989    1.2869   -7.2754 N.am      7 UNK        -0.4718 
     45 CA         25.6563    0.1316   -7.9989 C.3       7 UNK         0.0273 
     46 CB         24.8261   -0.7331   -7.0362 C.3       7 UNK        -0.1935 
     47 C          26.7330   -0.7210   -8.6974 C.2       7 UNK         0.5018 
     48 O          26.4265   -1.3528   -9.7081 O.2       7 UNK        -0.5186 
     49 N          27.9630   -0.7140   -8.1643 N.am      8 UNK        -0.4240 
     50 CA         29.1416   -1.3558   -8.7549 C.3       8 UNK         0.0235 
     51 CB         29.7769   -2.2912   -7.7090 C.3       8 UNK        -0.2000 
     52 C          30.1710   -0.3212   -9.2449 C.2       8 UNK         0.4941 
     53 O          31.2990   -0.7095   -9.5500 O.2       8 UNK        -0.5273 
     54 N          29.8072    0.9733   -9.2608 N.am      9 UNK        -0.4262 
     55 CA         30.6721    2.1350   -9.5237 C.3       9 UNK         0.0264 
     56 CB         31.0337    2.2062  -11.0219 C.3       9 UNK        -0.1955 
     57 C          31.9163    2.1797   -8.6081 C.2       9 UNK         0.5031 
     58 O          33.0082    2.5277   -9.0638 O.2       9 UNK        -0.5390 
     59 N          31.7368    1.7531   -7.3474 N.am      10 UNK        -0.4204 
     60 CA         32.7589    1.5190   -6.3190 C.3       10 UNK         0.0237 
     61 CB         33.3052    2.8599   -5.7875 C.3       10 UNK        -0.1985 
     62 C          33.8765    0.5465   -6.7530 C.2       10 UNK         0.4970 
     63 O          34.9897    0.6311   -6.2317 O.2       10 UNK        -0.4914 
     64 N          33.5610   -0.3474   -7.7009 N.am      11 UNK        -0.4285 
     65 CA         34.4783   -1.2847   -8.3636 C.3       11 UNK         0.1007 
     66 C          35.5303   -0.5975   -9.2873 C.2       11 UNK         0.5703 
     67 N          35.3499    0.6588   -9.6832 N.am      11 UNK        -0.7361 
     68 O          36.5144   -1.2195   -9.6816 O.2       11 UNK        -0.4986 
     69 C69        35.0992   -2.3354   -7.3986 C.3       12 UNK        -0.0947 
     70 S70        33.8354   -3.2336   -6.4302 S.3       12 UNK        -0.2240 
     71 C71        34.1822   -2.6924   -4.7205 C.3       12 UNK         0.0194 
     72 H72        27.0165   -3.8158   -8.6698 H         1 UNK         0.0906 
     73 H73        27.0982   -5.5435   -8.9964 H         1 UNK         0.0906 
     74 H74        25.5593   -4.6904   -9.1488 H         1 UNK         0.0906 
     75 H75        26.6429   -3.1808   -6.5294 H         1 UNK         0.3140 
     76 H76        26.6791   -5.0662   -4.4435 H         1 UNK         0.1085 
     77 H77        26.5993   -3.1502   -2.9267 H         1 UNK         0.0836 
     78 H78        25.9120   -2.1182   -4.1408 H         1 UNK         0.0836 
     79 H79        29.4690   -4.1900   -3.5246 H         1 UNK         0.0731 
     80 H80        28.8676   -3.0918   -2.2987 H         1 UNK         0.0731 
     81 H81        31.6815   -3.8061   -4.5185 H         1 UNK         0.1312 
     82 H82        33.9499   -0.3644   -3.3248 H         1 UNK         0.1406 
     83 H83        29.9029   -0.8571   -1.9863 H         1 UNK         0.1631 
     84 H84        32.7650    1.5358   -2.3333 H         1 UNK         0.0717 
     85 H85        32.4822    0.6678   -0.8441 H         1 UNK         0.0717 
     86 H86        29.8920    3.3472   -3.3047 H         1 UNK         0.0934 
     87 H87        30.9439    2.1112   -3.9287 H         1 UNK         0.0934 
     88 H88        29.0541    0.4501   -3.8780 H         1 UNK         0.0739 
     89 H89        27.8155    2.1185   -2.1381 H         1 UNK         0.3093 
     90 H90        25.6922    1.2154   -1.2792 H         1 UNK         0.0818 
     91 H91        26.0349    3.6370   -1.8029 H         1 UNK         0.0819 
     92 H92        24.7902    3.5718   -3.0428 H         1 UNK         0.0819 
     93 H93        24.3679    3.3581   -1.3450 H         1 UNK         0.0819 
     94 H94        23.3489    1.5787   -2.9713 H         1 UNK         0.3041 
     95 H95        21.8379   -1.1291   -2.0470 H         1 UNK         0.0784 
     96 H96        21.3349    1.1236   -3.0043 H         1 UNK         0.0793 
     97 H97        22.0715    0.6603   -4.5426 H         1 UNK         0.0793 
     98 H98        20.6007   -0.1245   -3.9849 H         1 UNK         0.0793 
     99 H99        23.5146   -1.9637   -4.2633 H         1 UNK         0.3024 
    100 H100       21.9884   -5.0372   -4.5019 H         1 UNK         0.1171 
    101 H101       21.6998   -3.0194   -6.8008 H         1 UNK         0.0786 
    102 H102       21.7546   -4.7748   -6.9732 H         1 UNK         0.0786 
    103 H103       20.4087   -4.0142   -6.1420 H         1 UNK         0.0786 
    104 H104       23.9809   -3.6417   -6.1000 H         1 UNK         0.2977 
    105 H105       27.3719    3.3807   -4.8350 H         1 UNK         0.3127 
    106 H106       28.3486    3.7596   -7.4368 H         1 UNK         0.0770 
    107 H107       25.5532    4.2949   -6.2914 H         1 UNK         0.0814 
    108 H108       26.1867    4.9782   -7.7822 H         1 UNK         0.0814 
    109 H109       26.9239    5.4061   -6.2484 H         1 UNK         0.0814 
    110 H110       26.1402    1.2522   -6.2594 H         1 UNK         0.2983 
    111 H111       24.9904    0.5114   -8.7769 H         1 UNK         0.0947 
    112 H112       24.3755   -1.5785   -7.5580 H         1 UNK         0.0806 
    113 H113       24.0159   -0.1593   -6.5856 H         1 UNK         0.0806 
    114 H114       25.4413   -1.1301   -6.2297 H         1 UNK         0.0806 
    115 H115       28.1338   -0.1509   -7.3368 H         1 UNK         0.3000 
    116 H116       28.8604   -1.9549   -9.6231 H         1 UNK         0.0850 
    117 H117       30.1281   -1.7387   -6.8360 H         1 UNK         0.0810 
    118 H118       30.6351   -2.8243   -8.1206 H         1 UNK         0.0810 
    119 H119       29.0698   -3.0457   -7.3666 H         1 UNK         0.0810 
    120 H120       28.8487    1.1949   -9.0209 H         1 UNK         0.3040 
    121 H121       30.0825    3.0200   -9.2807 H         1 UNK         0.0766 
    122 H122       31.6652    1.3702  -11.3246 H         1 UNK         0.0812 
    123 H123       30.1403    2.1956  -11.6462 H         1 UNK         0.0812 
    124 H124       31.5771    3.1238  -11.2509 H         1 UNK         0.0812 
    125 H125       30.7887    1.4945   -7.0693 H         1 UNK         0.3205 
    126 H126       32.2456    1.0160   -5.4992 H         1 UNK         0.0754 
    127 H127       33.9548    2.7059   -4.9250 H         1 UNK         0.0769 
    128 H128       32.4981    3.5197   -5.4694 H         1 UNK         0.0769 
    129 H129       33.8873    3.3843   -6.5462 H         1 UNK         0.0769 
    130 H130       32.6329   -0.3243   -8.1096 H         1 UNK         0.2981 
    131 H131       33.8451   -1.8388   -9.0570 H         1 UNK         0.0541 
    132 H132       36.0328    1.0848  -10.2888 H         1 UNK         0.3459 
    133 H133       34.5390    1.1909   -9.3860 H         1 UNK         0.3459 
    134 H134       35.8342   -1.8697   -6.7419 H         1 UNK         0.0612 
    135 H135       35.6499   -3.0851   -7.9690 H         1 UNK         0.0612 
    136 H136       34.9772   -1.9465   -4.7143 H         1 UNK         0.0624 
    137 H137       34.5651   -3.5461   -4.1603 H         1 UNK         0.0624 
@<TRIPOS>BOND
     1    1    2 1    
     2    1   72 1    
     3    1   73 1    
     4    1   74 1    
     5    2    3 2    
     6    2    4 am   BACKBONE|DICT|INTERRES
     7    4    5 1    
     8    4   75 1    
     9    5    6 1    
    10    5   35 1    
    11    5   76 1    
    12    6    7 1    
    13    6   77 1    
    14    6   78 1    
    15    7    8 1    
    16    8    9 1    
    17    8   79 1    
    18    8   80 1    
    19    9   10 ar   
    20    9   14 ar   
    21   10   11 ar   
    22   10   81 1    
    23   11   12 ar   
    24   11   71 1    
    25   12   13 ar   
    26   12   82 1    
    27   13   14 ar   
    28   13   15 1    
    29   14   83 1    
    30   15   16 1    
    31   15   84 1    
    32   15   85 1    
    33   16   17 1    
    34   17   18 1    
    35   17   86 1    
    36   17   87 1    
    37   18   19 1    
    38   18   37 1    
    39   18   88 1    
    40   19   20 am   BACKBONE|DICT|INTERRES
    41   19   89 1    
    42   20   21 2    
    43   20   22 1    
    44   22   23 1    
    45   22   24 1    
    46   22   90 1    
    47   23   91 1    
    48   23   92 1    
    49   23   93 1    
    50   24   25 am   BACKBONE|DICT|INTERRES
    51   24   94 1    
    52   25   26 2    
    53   25   27 1    
    54   27   28 1    
    55   27   29 1    
    56   27   95 1    
    57   28   96 1    
    58   28   97 1    
    59   28   98 1    
    60   29   30 am   BACKBONE|DICT|INTERRES
    61   29   99 1    
    62   30   31 2    
    63   30   32 1    
    64   32   33 1    
    65   32   34 1    
    66   32  100 1    
    67   33  101 1    
    68   33  102 1    
    69   33  103 1    
    70   34   35 am   BACKBONE|DICT|INTERRES
    71   34  104 1    
    72   35   36 2    
    73   37   38 2    
    74   37   39 am   BACKBONE|DICT|INTERRES
    75   39   40 1    
    76   39  105 1    
    77   40   41 1    
    78   40   42 1    
    79   40  106 1    
    80   41  107 1    
    81   41  108 1    
    82   41  109 1    
    83   42   43 2    
    84   42   44 am   BACKBONE|DICT|INTERRES
    85   44   45 1    
    86   44  110 1    
    87   45   46 1    
    88   45   47 1    
    89   45  111 1    
    90   46  112 1    
    91   46  113 1    
    92   46  114 1    
    93   47   48 2    
    94   47   49 am   BACKBONE|DICT|INTERRES
    95   49   50 1    
    96   49  115 1    
    97   50   51 1    
    98   50   52 1    
    99   50  116 1    
   100   51  117 1    
   101   51  118 1    
   102   51  119 1    
   103   52   53 2    
   104   52   54 am   BACKBONE|DICT|INTERRES
   105   54   55 1    
   106   54  120 1    
   107   55   56 1    
   108   55   57 1    
   109   55  121 1    
   110   56  122 1    
   111   56  123 1    
   112   56  124 1    
   113   57   58 2    
   114   57   59 am   BACKBONE|DICT|INTERRES
   115   59   60 1    
   116   59  125 1    
   117   60   61 1    
   118   60   62 1    
   119   60  126 1    
   120   61  127 1    
   121   61  128 1    
   122   61  129 1    
   123   62   63 2    
   124   62   64 am   BACKBONE|DICT|INTERRES
   125   64   65 1    
   126   64  130 1    
   127   65   66 1    
   128   65   69 1    
   129   65  131 1    
   130   66   67 am   BACKBONE|DICT|INTERRES
   131   66   68 2    
   132   67  132 1    
   133   67  133 1    
   134   69   70 1    
   135   69  134 1    
   136   69  135 1    
   137   70   71 1    
   138   71  136 1    
   139   71  137 1    
@<TRIPOS>SUBSTRUCTURE
     1 UNK         1 GROUP             0       ****    0 ROOT    
