@<TRIPOS>MOLECULE
3R137
137   139    1
SMALL
USER_CHARGES


@<TRIPOS>ATOM
      1 CA         26.0991   -5.0584   -3.8762 C.3       0 UNK        -0.2020 
      2 C          26.4533   -3.7574   -3.1720 C.2       0 UNK         0.4855 
      3 O          26.5279   -2.7080   -3.8187 O.2       0 UNK        -0.5197 
      4 N          26.6696   -3.8404   -1.8503 N.am      1 UNK        -0.4892 
      5 CA         27.0979   -2.7546   -0.9561 C.3       1 UNK         0.0835 
      6 C6         28.5550   -2.2973   -1.2373 C.3       12 UNK        -0.0855 
      7 S7         29.7891   -3.4451   -0.5381 S.3       12 UNK        -0.2931 
      8 C8         30.1004   -4.5996   -1.9194 C.3       12 UNK         0.0378 
      9 C9         30.6573   -3.9796   -3.2021 C.ar      12 UNK        -0.0802 
     10 C10        31.3646   -2.7705   -3.2148 C.ar      12 UNK        -0.0944 
     11 C11        31.8557   -2.2431   -4.4128 C.ar      12 UNK        -0.0787 
     12 C12        31.6539   -2.9407   -5.6086 C.ar      12 UNK        -0.0862 
     13 C13        30.9755   -4.1631   -5.6072 C.ar      12 UNK        -0.0733 
     14 C14        30.4777   -4.6704   -4.4036 C.ar      12 UNK        -0.0832 
     15 C15        30.7995   -4.9606   -6.8940 C.3       12 UNK         0.0240 
     16 S16        29.6829   -4.1674   -8.0947 S.3       12 UNK        -0.2522 
     17 C17        28.1599   -3.8933   -7.1257 C.3       12 UNK        -0.0967 
     18 CA         27.4944   -2.5318   -7.4346 C.3       5 UNK         0.0660 
     19 N          26.1383   -2.4653   -6.8768 N.am      5 UNK        -0.4015 
     20 C          25.2700   -1.4654   -7.0776 C.2       4 UNK         0.4946 
     21 O          25.5077   -0.4945   -7.7954 O.2       4 UNK        -0.5353 
     22 CA         23.9575   -1.4996   -6.2885 C.3       4 UNK         0.0277 
     23 CB         23.4959   -2.9137   -5.8882 C.3       4 UNK        -0.1981 
     24 N          24.1539   -0.6888   -5.0901 N.am      4 UNK        -0.4209 
     25 C          23.7614    0.5854   -4.9597 C.2       3 UNK         0.4942 
     26 O          23.0829    1.1819   -5.7976 O.2       3 UNK        -0.5208 
     27 CA         24.2149    1.3181   -3.6801 C.3       3 UNK         0.0250 
     28 CB         23.3790    2.5821   -3.3865 C.3       3 UNK        -0.1990 
     29 N          24.2774    0.4552   -2.4931 N.am      3 UNK        -0.4232 
     30 C          23.2844   -0.2581   -1.9428 C.2       2 UNK         0.4993 
     31 O          22.1406   -0.3099   -2.3986 O.2       2 UNK        -0.5286 
     32 CA         23.6403   -1.0509   -0.6682 C.3       2 UNK         0.0209 
     33 CB         22.4491   -1.8637   -0.1247 C.3       2 UNK        -0.1931 
     34 N          24.7812   -1.9566   -0.8464 N.am      2 UNK        -0.4546 
     35 C          26.0723   -1.5989   -0.9011 C.2       1 UNK         0.5154 
     36 O          26.4430   -0.4230   -0.8974 O.2       1 UNK        -0.5181 
     37 C          28.3630   -1.3275   -7.0017 C.2       5 UNK         0.5014 
     38 O          29.1142   -0.7972   -7.8242 O.2       5 UNK        -0.5248 
     39 N          28.1746   -0.8550   -5.7594 N.am      6 UNK        -0.4434 
     40 CA         28.7819    0.3729   -5.2340 C.3       6 UNK         0.0363 
     41 CB         28.4571    0.5131   -3.7389 C.3       6 UNK        -0.1936 
     42 C          28.4148    1.6670   -5.9898 C.2       6 UNK         0.5081 
     43 O          29.1499    2.6458   -5.8615 O.2       6 UNK        -0.5248 
     44 N          27.3148    1.6636   -6.7548 N.am      7 UNK        -0.4718 
     45 CA         26.9167    2.7716   -7.6241 C.3       7 UNK         0.0273 
     46 CB         25.4273    3.0833   -7.4071 C.3       7 UNK        -0.1935 
     47 C          27.1888    2.4440   -9.0999 C.2       7 UNK         0.5018 
     48 O          27.7037    3.3005   -9.8190 O.2       7 UNK        -0.5186 
     49 N          26.8208    1.2284   -9.5308 N.am      8 UNK        -0.4240 
     50 CA         26.8866    0.7778  -10.9225 C.3       8 UNK         0.0235 
     51 CB         26.0713   -0.5159  -11.0827 C.3       8 UNK        -0.2000 
     52 C          28.3174    0.5829  -11.4461 C.2       8 UNK         0.4941 
     53 O          28.5950    0.9784  -12.5794 O.2       8 UNK        -0.5273 
     54 N          29.1877   -0.0230  -10.6287 N.am      9 UNK        -0.4262 
     55 CA         30.6003   -0.2425  -10.9458 C.3       9 UNK         0.0264 
     56 CB         30.9818   -1.7017  -10.6462 C.3       9 UNK        -0.1955 
     57 C          31.4815    0.7231  -10.1454 C.2       9 UNK         0.5031 
     58 O          32.3620    1.3545  -10.7322 O.2       9 UNK        -0.5390 
     59 N          31.2039    0.8255   -8.8361 N.am      10 UNK        -0.4204 
     60 CA         31.8990    1.6196   -7.8173 C.3       10 UNK         0.0237 
     61 CB         31.8761    3.1227   -8.1683 C.3       10 UNK        -0.1985 
     62 C          33.3206    1.1167   -7.4987 C.2       10 UNK         0.4970 
     63 O          33.8769    0.2792   -8.2121 O.2       10 UNK        -0.4914 
     64 N          33.8616    1.6280   -6.3883 N.am      11 UNK        -0.4285 
     65 CA         35.1816    1.2823   -5.8345 C.3       11 UNK         0.1007 
     66 C          36.1248    2.5160   -5.7159 C.2       11 UNK         0.5703 
     67 N          35.7710    3.6817   -6.2463 N.am      11 UNK        -0.7361 
     68 O          37.2117    2.4142   -5.1514 O.2       11 UNK        -0.4986 
     69 C69        35.0378    0.5200   -4.4866 C.3       12 UNK        -0.0947 
     70 S70        34.3842   -1.1707   -4.6935 S.3       12 UNK        -0.2240 
     71 C71        32.6052   -0.9203   -4.4117 C.3       12 UNK         0.0194 
     72 H72        26.4518   -5.0509   -4.9057 H         1 UNK         0.0906 
     73 H73        26.5549   -5.9141   -3.3783 H         1 UNK         0.0906 
     74 H74        25.0197   -5.2050   -3.8827 H         1 UNK         0.0906 
     75 H75        26.5657   -4.7395   -1.3996 H         1 UNK         0.3140 
     76 H76        27.0761   -3.1669    0.0544 H         1 UNK         0.1085 
     77 H77        28.7208   -2.1812   -2.3068 H         1 UNK         0.0836 
     78 H78        28.7675   -1.3250   -0.7898 H         1 UNK         0.0836 
     79 H79        30.8056   -5.3570   -1.5752 H         1 UNK         0.0731 
     80 H80        29.1710   -5.1267   -2.1377 H         1 UNK         0.0731 
     81 H81        31.5350   -2.2322   -2.2934 H         1 UNK         0.1312 
     82 H82        32.0375   -2.5396   -6.5372 H         1 UNK         0.1406 
     83 H83        29.9529   -5.6164   -4.4002 H         1 UNK         0.1631 
     84 H84        30.4238   -5.9625   -6.6805 H         1 UNK         0.0717 
     85 H85        31.7748   -5.0975   -7.3628 H         1 UNK         0.0717 
     86 H86        27.4759   -4.7067   -7.3730 H         1 UNK         0.0934 
     87 H87        28.3551   -3.9814   -6.0573 H         1 UNK         0.0934 
     88 H88        27.3809   -2.4598   -8.5181 H         1 UNK         0.0739 
     89 H89        25.8855   -3.1861   -6.2181 H         1 UNK         0.3093 
     90 H90        23.1860   -1.0668   -6.9291 H         1 UNK         0.0818 
     91 H91        22.4970   -2.8816   -5.4524 H         1 UNK         0.0819 
     92 H92        23.4448   -3.5745   -6.7548 H         1 UNK         0.0819 
     93 H93        24.1518   -3.3726   -5.1519 H         1 UNK         0.0819 
     94 H94        24.7202   -1.0968   -4.3578 H         1 UNK         0.3041 
     95 H95        25.2382    1.6432   -3.8734 H         1 UNK         0.0784 
     96 H96        23.4344    3.2907   -4.2140 H         1 UNK         0.0793 
     97 H97        22.3262    2.3425   -3.2332 H         1 UNK         0.0793 
     98 H98        23.7391    3.0983   -2.4967 H         1 UNK         0.0793 
     99 H99        25.1835    0.3881   -2.0332 H         1 UNK         0.3024 
    100 H100       23.9063   -0.3113    0.0910 H         1 UNK         0.1171 
    101 H101       22.1239   -2.6264   -0.8335 H         1 UNK         0.0786 
    102 H102       21.5928   -1.2183    0.0763 H         1 UNK         0.0786 
    103 H103       22.7012   -2.3608    0.8122 H         1 UNK         0.0786 
    104 H104       24.5656   -2.9415   -0.9056 H         1 UNK         0.2977 
    105 H105       27.5636   -1.3700   -5.1337 H         1 UNK         0.3127 
    106 H106       29.8628    0.2623   -5.3294 H         1 UNK         0.0770 
    107 H107       29.0499   -0.1843   -3.1526 H         1 UNK         0.0814 
    108 H108       27.4033    0.3314   -3.5273 H         1 UNK         0.0814 
    109 H109       28.6988    1.5096   -3.3658 H         1 UNK         0.0814 
    110 H110       26.7763    0.8093   -6.8417 H         1 UNK         0.2983 
    111 H111       27.4822    3.6736   -7.3794 H         1 UNK         0.0947 
    112 H112       25.1106    3.9238   -8.0258 H         1 UNK         0.0806 
    113 H113       25.2250    3.3496   -6.3697 H         1 UNK         0.0806 
    114 H114       24.7929    2.2337   -7.6629 H         1 UNK         0.0806 
    115 H115       26.3652    0.5948   -8.8743 H         1 UNK         0.3000 
    116 H116       26.4162    1.5477  -11.5381 H         1 UNK         0.0850 
    117 H117       26.0725   -0.8528  -12.1203 H         1 UNK         0.0810 
    118 H118       25.0313   -0.3672  -10.7912 H         1 UNK         0.0810 
    119 H119       26.4745   -1.3265  -10.4755 H         1 UNK         0.0810 
    120 H120       28.8879   -0.2879   -9.6953 H         1 UNK         0.3040 
    121 H121       30.7865   -0.0641  -12.0071 H         1 UNK         0.0766 
    122 H122       32.0169   -1.8974  -10.9285 H         1 UNK         0.0812 
    123 H123       30.3545   -2.3994  -11.2010 H         1 UNK         0.0812 
    124 H124       30.8871   -1.9365   -9.5862 H         1 UNK         0.0812 
    125 H125       30.4712    0.2183   -8.4707 H         1 UNK         0.3205 
    126 H126       31.3171    1.4825   -6.9069 H         1 UNK         0.0754 
    127 H127       32.2094    3.7318   -7.3278 H         1 UNK         0.0769 
    128 H128       30.8665    3.4516   -8.4172 H         1 UNK         0.0769 
    129 H129       32.5231    3.3556   -9.0145 H         1 UNK         0.0769 
    130 H130       33.3421    2.3149   -5.8610 H         1 UNK         0.2981 
    131 H131       35.7040    0.6228   -6.5294 H         1 UNK         0.0541 
    132 H132       34.9086    3.7786   -6.7563 H         1 UNK         0.3459 
    133 H133       36.3987    4.4664   -6.1659 H         1 UNK         0.3459 
    134 H134       34.4143    1.0790   -3.7868 H         1 UNK         0.0612 
    135 H135       36.0078    0.4085   -3.9992 H         1 UNK         0.0612 
    136 H136       32.4586   -0.3959   -3.4661 H         1 UNK         0.0624 
    137 H137       32.1968   -0.2780   -5.1898 H         1 UNK         0.0624 
@<TRIPOS>BOND
     1    1    2 1    
     2    1   72 1    
     3    1   73 1    
     4    1   74 1    
     5    2    3 2    
     6    2    4 am   BACKBONE|DICT|INTERRES
     7    4    5 1    
     8    4   75 1    
     9    5    6 1    
    10    5   35 1    
    11    5   76 1    
    12    6    7 1    
    13    6   77 1    
    14    6   78 1    
    15    7    8 1    
    16    8    9 1    
    17    8   79 1    
    18    8   80 1    
    19    9   10 ar   
    20    9   14 ar   
    21   10   11 ar   
    22   10   81 1    
    23   11   12 ar   
    24   11   71 1    
    25   12   13 ar   
    26   12   82 1    
    27   13   14 ar   
    28   13   15 1    
    29   14   83 1    
    30   15   16 1    
    31   15   84 1    
    32   15   85 1    
    33   16   17 1    
    34   17   18 1    
    35   17   86 1    
    36   17   87 1    
    37   18   19 1    
    38   18   37 1    
    39   18   88 1    
    40   19   20 am   BACKBONE|DICT|INTERRES
    41   19   89 1    
    42   20   21 2    
    43   20   22 1    
    44   22   23 1    
    45   22   24 1    
    46   22   90 1    
    47   23   91 1    
    48   23   92 1    
    49   23   93 1    
    50   24   25 am   BACKBONE|DICT|INTERRES
    51   24   94 1    
    52   25   26 2    
    53   25   27 1    
    54   27   28 1    
    55   27   29 1    
    56   27   95 1    
    57   28   96 1    
    58   28   97 1    
    59   28   98 1    
    60   29   30 am   BACKBONE|DICT|INTERRES
    61   29   99 1    
    62   30   31 2    
    63   30   32 1    
    64   32   33 1    
    65   32   34 1    
    66   32  100 1    
    67   33  101 1    
    68   33  102 1    
    69   33  103 1    
    70   34   35 am   BACKBONE|DICT|INTERRES
    71   34  104 1    
    72   35   36 2    
    73   37   38 2    
    74   37   39 am   BACKBONE|DICT|INTERRES
    75   39   40 1    
    76   39  105 1    
    77   40   41 1    
    78   40   42 1    
    79   40  106 1    
    80   41  107 1    
    81   41  108 1    
    82   41  109 1    
    83   42   43 2    
    84   42   44 am   BACKBONE|DICT|INTERRES
    85   44   45 1    
    86   44  110 1    
    87   45   46 1    
    88   45   47 1    
    89   45  111 1    
    90   46  112 1    
    91   46  113 1    
    92   46  114 1    
    93   47   48 2    
    94   47   49 am   BACKBONE|DICT|INTERRES
    95   49   50 1    
    96   49  115 1    
    97   50   51 1    
    98   50   52 1    
    99   50  116 1    
   100   51  117 1    
   101   51  118 1    
   102   51  119 1    
   103   52   53 2    
   104   52   54 am   BACKBONE|DICT|INTERRES
   105   54   55 1    
   106   54  120 1    
   107   55   56 1    
   108   55   57 1    
   109   55  121 1    
   110   56  122 1    
   111   56  123 1    
   112   56  124 1    
   113   57   58 2    
   114   57   59 am   BACKBONE|DICT|INTERRES
   115   59   60 1    
   116   59  125 1    
   117   60   61 1    
   118   60   62 1    
   119   60  126 1    
   120   61  127 1    
   121   61  128 1    
   122   61  129 1    
   123   62   63 2    
   124   62   64 am   BACKBONE|DICT|INTERRES
   125   64   65 1    
   126   64  130 1    
   127   65   66 1    
   128   65   69 1    
   129   65  131 1    
   130   66   67 am   BACKBONE|DICT|INTERRES
   131   66   68 2    
   132   67  132 1    
   133   67  133 1    
   134   69   70 1    
   135   69  134 1    
   136   69  135 1    
   137   70   71 1    
   138   71  136 1    
   139   71  137 1    
@<TRIPOS>SUBSTRUCTURE
     1 UNK         1 GROUP             0       ****    0 ROOT    
