@<TRIPOS>MOLECULE
3R137
137   139    1
SMALL
USER_CHARGES


@<TRIPOS>ATOM
      1 CA         30.1224   -4.4610   -9.8012 C.3       0 UNK        -0.2020 
      2 C          29.5770   -5.3144   -8.6659 C.2       0 UNK         0.4855 
      3 O          29.7832   -6.5285   -8.6604 O.2       0 UNK        -0.5197 
      4 N          28.8983   -4.6861   -7.7021 N.am      1 UNK        -0.4892 
      5 CA         28.3878   -5.3257   -6.4829 C.3       1 UNK         0.0835 
      6 C6         29.4262   -5.3305   -5.3313 C.3       12 UNK        -0.0855 
      7 S7         30.1561   -3.6923   -4.9980 S.3       12 UNK        -0.2931 
      8 C8         29.4652   -3.2482   -3.3812 C.3       12 UNK         0.0378 
      9 C9         30.2208   -2.0544   -2.8211 C.ar      12 UNK        -0.0802 
     10 C10        31.5041   -2.2366   -2.2985 C.ar      12 UNK        -0.0944 
     11 C11        32.2387   -1.1487   -1.8235 C.ar      12 UNK        -0.0787 
     12 C12        31.6653    0.1252   -1.8415 C.ar      12 UNK        -0.0862 
     13 C13        30.3761    0.3249   -2.3461 C.ar      12 UNK        -0.0733 
     14 C14        29.6626   -0.7721   -2.8508 C.ar      12 UNK        -0.0832 
     15 C15        29.8184    1.7463   -2.3759 C.3       12 UNK         0.0240 
     16 S16        28.0036    1.8567   -2.1946 S.3       12 UNK        -0.2522 
     17 C17        27.5551    2.8964   -3.6257 C.3       12 UNK        -0.0967 
     18 CA         26.8967    2.0640   -4.7568 C.3       5 UNK         0.0660 
     19 N          25.6024    1.4742   -4.3863 N.am      5 UNK        -0.4015 
     20 C          24.4786    2.0997   -3.9985 C.2       4 UNK         0.4946 
     21 O          24.3594    3.3256   -3.9641 O.2       4 UNK        -0.5353 
     22 CA         23.2607    1.2339   -3.6197 C.3       4 UNK         0.0277 
     23 CB         22.1879    1.3200   -4.7189 C.3       4 UNK        -0.1981 
     24 N          23.5896   -0.1734   -3.3889 N.am      4 UNK        -0.4209 
     25 C          24.2644   -0.6499   -2.3323 C.2       3 UNK         0.4942 
     26 O          24.5709    0.0296   -1.3530 O.2       3 UNK        -0.5208 
     27 CA         24.6947   -2.1295   -2.3914 C.3       3 UNK         0.0250 
     28 CB         23.7701   -2.9954   -1.5203 C.3       3 UNK        -0.1990 
     29 N          24.7389   -2.6865   -3.7511 N.am      3 UNK        -0.4232 
     30 C          25.5560   -2.2639   -4.7257 C.2       2 UNK         0.4993 
     31 O          26.3720   -1.3502   -4.5875 O.2       2 UNK        -0.5286 
     32 CA         25.3903   -2.9199   -6.1024 C.3       2 UNK         0.0209 
     33 CB         24.9930   -1.8720   -7.1530 C.3       2 UNK        -0.1931 
     34 N          26.6350   -3.5699   -6.5050 N.am      2 UNK        -0.4546 
     35 C          27.0309   -4.7586   -6.0272 C.2       1 UNK         0.5154 
     36 O          26.3457   -5.4274   -5.2504 O.2       1 UNK        -0.5181 
     37 C          26.8744    2.8533   -6.0812 C.2       5 UNK         0.5014 
     38 O          27.7532    2.6456   -6.9171 O.2       5 UNK        -0.5248 
     39 N          25.8858    3.7368   -6.2625 N.am      6 UNK        -0.4434 
     40 CA         25.7359    4.6135   -7.4275 C.3       6 UNK         0.0363 
     41 CB         24.5760    5.5903   -7.1763 C.3       6 UNK        -0.1936 
     42 C          25.5287    3.8637   -8.7556 C.2       6 UNK         0.5081 
     43 O          25.9163    4.3802   -9.8041 O.2       6 UNK        -0.5248 
     44 N          24.9172    2.6732   -8.6914 N.am      7 UNK        -0.4718 
     45 CA         24.6510    1.8254   -9.8522 C.3       7 UNK         0.0273 
     46 CB         23.5213    0.8363   -9.5224 C.3       7 UNK        -0.1935 
     47 C          25.9019    1.0878  -10.3591 C.2       7 UNK         0.5018 
     48 O          26.1405    1.0903  -11.5675 O.2       7 UNK        -0.5186 
     49 N          26.6628    0.4638   -9.4466 N.am      8 UNK        -0.4240 
     50 CA         27.8068   -0.3974   -9.7597 C.3       8 UNK         0.0235 
     51 CB         27.3579   -1.6459  -10.5585 C.3       8 UNK        -0.2000 
     52 C          28.5449   -0.8033   -8.4748 C.2       8 UNK         0.4941 
     53 O          28.4173   -1.9487   -8.0341 O.2       8 UNK        -0.5273 
     54 N          29.3110    0.1234   -7.8891 N.am      9 UNK        -0.4262 
     55 CA         30.2641   -0.1855   -6.8214 C.3       9 UNK         0.0264 
     56 CB         30.6062    1.0876   -6.0302 C.3       9 UNK        -0.1955 
     57 C          31.5441   -0.7766   -7.4285 C.2       9 UNK         0.5031 
     58 O          32.2125   -0.0895   -8.2045 O.2       9 UNK        -0.5390 
     59 N          31.8972   -2.0071   -7.0367 N.am      10 UNK        -0.4204 
     60 CA         33.1520   -2.6699   -7.4130 C.3       10 UNK         0.0237 
     61 CB         33.1113   -4.1432   -6.9765 C.3       10 UNK        -0.1985 
     62 C          34.3957   -1.9723   -6.8317 C.2       10 UNK         0.4970 
     63 O          35.4644   -2.0403   -7.4397 O.2       10 UNK        -0.4914 
     64 N          34.2255   -1.2973   -5.6872 N.am      11 UNK        -0.4285 
     65 CA         35.2329   -0.4318   -5.0571 C.3       11 UNK         0.1007 
     66 C          35.4566    0.9266   -5.7886 C.2       11 UNK         0.5703 
     67 N          34.6731    1.2909   -6.7991 N.am      11 UNK        -0.7361 
     68 O          36.3721    1.6658   -5.4348 O.2       11 UNK        -0.4986 
     69 C69        34.9350   -0.2095   -3.5497 C.3       12 UNK        -0.0947 
     70 S70        34.8348   -1.7726   -2.6113 S.3       12 UNK        -0.2240 
     71 C71        33.6506   -1.3524   -1.2912 C.3       12 UNK         0.0194 
     72 H72        30.1582   -3.4059   -9.5318 H         1 UNK         0.0906 
     73 H73        31.1358   -4.7726  -10.0526 H         1 UNK         0.0906 
     74 H74        29.5002   -4.5720  -10.6885 H         1 UNK         0.0906 
     75 H75        28.7625   -3.6779   -7.7700 H         1 UNK         0.3140 
     76 H76        28.1683   -6.3694   -6.7200 H         1 UNK         0.1085 
     77 H77        30.2468   -5.9978   -5.5990 H         1 UNK         0.0836 
     78 H78        29.0018   -5.7493   -4.4167 H         1 UNK         0.0836 
     79 H79        29.5521   -4.0911   -2.6940 H         1 UNK         0.0731 
     80 H80        28.4011   -3.0296   -3.4842 H         1 UNK         0.0731 
     81 H81        31.9445   -3.2246   -2.2895 H         1 UNK         0.1312 
     82 H82        32.2321    0.9688   -1.4712 H         1 UNK         0.1406 
     83 H83        28.6766   -0.6333   -3.2743 H         1 UNK         0.1631 
     84 H84        30.1498    2.2133   -3.3020 H         1 UNK         0.0717 
     85 H85        30.2601    2.3346   -1.5700 H         1 UNK         0.0717 
     86 H86        26.8831    3.6829   -3.2793 H         1 UNK         0.0934 
     87 H87        28.4407    3.4204   -3.9891 H         1 UNK         0.0934 
     88 H88        27.5373    1.2012   -4.9450 H         1 UNK         0.0739 
     89 H89        25.6124    0.4585   -4.3838 H         1 UNK         0.3093 
     90 H90        22.8447    1.6445   -2.6971 H         1 UNK         0.0818 
     91 H91        21.8897    2.3548   -4.8942 H         1 UNK         0.0819 
     92 H92        22.5456    0.9196   -5.6684 H         1 UNK         0.0819 
     93 H93        21.2882    0.7711   -4.4396 H         1 UNK         0.0819 
     94 H94        23.3504   -0.8207   -4.1252 H         1 UNK         0.3041 
     95 H95        25.7052   -2.1849   -1.9805 H         1 UNK         0.0784 
     96 H96        23.7404   -2.6249   -0.4944 H         1 UNK         0.0793 
     97 H97        22.7459   -2.9975   -1.8954 H         1 UNK         0.0793 
     98 H98        24.1162   -4.0285   -1.4784 H         1 UNK         0.0793 
     99 H99        24.1066   -3.4512   -3.9424 H         1 UNK         0.3024 
    100 H100       24.5968   -3.6699   -6.0584 H         1 UNK         0.1171 
    101 H101       24.0369   -1.4137   -6.8983 H         1 UNK         0.0786 
    102 H102       25.7316   -1.0740   -7.2217 H         1 UNK         0.0786 
    103 H103       24.8869   -2.3189   -8.1416 H         1 UNK         0.0786 
    104 H104       27.2650   -3.0185   -7.0814 H         1 UNK         0.2977 
    105 H105       25.2071    3.8325   -5.5082 H         1 UNK         0.3127 
    106 H106       26.6570    5.1924   -7.5232 H         1 UNK         0.0770 
    107 H107       23.6296    5.0656   -7.0392 H         1 UNK         0.0814 
    108 H108       24.4517    6.2743   -8.0171 H         1 UNK         0.0814 
    109 H109       24.7541    6.1985   -6.2893 H         1 UNK         0.0814 
    110 H110       24.6208    2.3363   -7.7878 H         1 UNK         0.2983 
    111 H111       24.2998    2.4633  -10.6671 H         1 UNK         0.0947 
    112 H112       23.3153    0.1817  -10.3706 H         1 UNK         0.0806 
    113 H113       22.5943    1.3596   -9.2872 H         1 UNK         0.0806 
    114 H114       23.7703    0.2014   -8.6739 H         1 UNK         0.0806 
    115 H115       26.4441    0.5740   -8.4668 H         1 UNK         0.3000 
    116 H116       28.5085    0.1697  -10.3749 H         1 UNK         0.0850 
    117 H117       28.1968   -2.3192  -10.7344 H         1 UNK         0.0810 
    118 H118       26.9595   -1.3859  -11.5384 H         1 UNK         0.0810 
    119 H119       26.5922   -2.2112  -10.0264 H         1 UNK         0.0810 
    120 H120       29.3457    1.0584   -8.2716 H         1 UNK         0.3040 
    121 H121       29.8160   -0.9021   -6.1293 H         1 UNK         0.0766 
    122 H122       31.0194    1.8678   -6.6707 H         1 UNK         0.0812 
    123 H123       29.7278    1.4952   -5.5375 H         1 UNK         0.0812 
    124 H124       31.3425    0.8780   -5.2530 H         1 UNK         0.0812 
    125 H125       31.2911   -2.5139   -6.3991 H         1 UNK         0.3205 
    126 H126       33.2330   -2.6371   -8.5015 H         1 UNK         0.0754 
    127 H127       34.0083   -4.6711   -7.3029 H         1 UNK         0.0769 
    128 H128       32.2560   -4.6640   -7.4061 H         1 UNK         0.0769 
    129 H129       33.0529   -4.2417   -5.8917 H         1 UNK         0.0769 
    130 H130       33.3214   -1.3183   -5.2413 H         1 UNK         0.2981 
    131 H131       36.1889   -0.9549   -5.1206 H         1 UNK         0.0541 
    132 H132       34.8465    2.1726   -7.2544 H         1 UNK         0.3459 
    133 H133       33.9278    0.6943   -7.1339 H         1 UNK         0.3459 
    134 H134       34.0056    0.3491   -3.4343 H         1 UNK         0.0612 
    135 H135       35.7156    0.3974   -3.0875 H         1 UNK         0.0612 
    136 H136       34.0030   -0.4646   -0.7638 H         1 UNK         0.0624 
    137 H137       33.6418   -2.1606   -0.5587 H         1 UNK         0.0624 
@<TRIPOS>BOND
     1    1    2 1    
     2    1   72 1    
     3    1   73 1    
     4    1   74 1    
     5    2    3 2    
     6    2    4 am   BACKBONE|DICT|INTERRES
     7    4    5 1    
     8    4   75 1    
     9    5    6 1    
    10    5   35 1    
    11    5   76 1    
    12    6    7 1    
    13    6   77 1    
    14    6   78 1    
    15    7    8 1    
    16    8    9 1    
    17    8   79 1    
    18    8   80 1    
    19    9   10 ar   
    20    9   14 ar   
    21   10   11 ar   
    22   10   81 1    
    23   11   12 ar   
    24   11   71 1    
    25   12   13 ar   
    26   12   82 1    
    27   13   14 ar   
    28   13   15 1    
    29   14   83 1    
    30   15   16 1    
    31   15   84 1    
    32   15   85 1    
    33   16   17 1    
    34   17   18 1    
    35   17   86 1    
    36   17   87 1    
    37   18   19 1    
    38   18   37 1    
    39   18   88 1    
    40   19   20 am   BACKBONE|DICT|INTERRES
    41   19   89 1    
    42   20   21 2    
    43   20   22 1    
    44   22   23 1    
    45   22   24 1    
    46   22   90 1    
    47   23   91 1    
    48   23   92 1    
    49   23   93 1    
    50   24   25 am   BACKBONE|DICT|INTERRES
    51   24   94 1    
    52   25   26 2    
    53   25   27 1    
    54   27   28 1    
    55   27   29 1    
    56   27   95 1    
    57   28   96 1    
    58   28   97 1    
    59   28   98 1    
    60   29   30 am   BACKBONE|DICT|INTERRES
    61   29   99 1    
    62   30   31 2    
    63   30   32 1    
    64   32   33 1    
    65   32   34 1    
    66   32  100 1    
    67   33  101 1    
    68   33  102 1    
    69   33  103 1    
    70   34   35 am   BACKBONE|DICT|INTERRES
    71   34  104 1    
    72   35   36 2    
    73   37   38 2    
    74   37   39 am   BACKBONE|DICT|INTERRES
    75   39   40 1    
    76   39  105 1    
    77   40   41 1    
    78   40   42 1    
    79   40  106 1    
    80   41  107 1    
    81   41  108 1    
    82   41  109 1    
    83   42   43 2    
    84   42   44 am   BACKBONE|DICT|INTERRES
    85   44   45 1    
    86   44  110 1    
    87   45   46 1    
    88   45   47 1    
    89   45  111 1    
    90   46  112 1    
    91   46  113 1    
    92   46  114 1    
    93   47   48 2    
    94   47   49 am   BACKBONE|DICT|INTERRES
    95   49   50 1    
    96   49  115 1    
    97   50   51 1    
    98   50   52 1    
    99   50  116 1    
   100   51  117 1    
   101   51  118 1    
   102   51  119 1    
   103   52   53 2    
   104   52   54 am   BACKBONE|DICT|INTERRES
   105   54   55 1    
   106   54  120 1    
   107   55   56 1    
   108   55   57 1    
   109   55  121 1    
   110   56  122 1    
   111   56  123 1    
   112   56  124 1    
   113   57   58 2    
   114   57   59 am   BACKBONE|DICT|INTERRES
   115   59   60 1    
   116   59  125 1    
   117   60   61 1    
   118   60   62 1    
   119   60  126 1    
   120   61  127 1    
   121   61  128 1    
   122   61  129 1    
   123   62   63 2    
   124   62   64 am   BACKBONE|DICT|INTERRES
   125   64   65 1    
   126   64  130 1    
   127   65   66 1    
   128   65   69 1    
   129   65  131 1    
   130   66   67 am   BACKBONE|DICT|INTERRES
   131   66   68 2    
   132   67  132 1    
   133   67  133 1    
   134   69   70 1    
   135   69  134 1    
   136   69  135 1    
   137   70   71 1    
   138   71  136 1    
   139   71  137 1    
@<TRIPOS>SUBSTRUCTURE
     1 UNK         1 GROUP             0       ****    0 ROOT    
