@<TRIPOS>MOLECULE
3R137
137   139    1
SMALL
USER_CHARGES


@<TRIPOS>ATOM
      1 CA         28.6718   -4.9942    0.8861 C.3       0 UNK        -0.2020 
      2 C          28.2719   -3.5267    0.8521 C.2       0 UNK         0.4855 
      3 O          27.7370   -3.0141    1.8352 O.2       0 UNK        -0.5197 
      4 N          28.5278   -2.8476   -0.2735 N.am      1 UNK        -0.4892 
      5 CA         28.2058   -1.4305   -0.4880 C.3       1 UNK         0.0835 
      6 C6         28.9940   -0.8380   -1.6820 C.3       12 UNK        -0.0855 
      7 S7         30.7914   -0.7197   -1.3734 S.3       12 UNK        -0.2931 
      8 C8         31.4663   -2.2777   -2.0455 C.3       12 UNK         0.0378 
      9 C9         31.0306   -2.5564   -3.4783 C.ar      12 UNK        -0.0802 
     10 C10        31.3916   -1.6869   -4.5122 C.ar      12 UNK        -0.0944 
     11 C11        30.9796   -1.9362   -5.8244 C.ar      12 UNK        -0.0787 
     12 C12        30.2101   -3.0701   -6.0990 C.ar      12 UNK        -0.0862 
     13 C13        29.8491   -3.9545   -5.0770 C.ar      12 UNK        -0.0733 
     14 C14        30.2673   -3.6915   -3.7697 C.ar      12 UNK        -0.0832 
     15 C15        29.0378   -5.2144   -5.3660 C.3       12 UNK         0.0240 
     16 S16        27.6884   -4.9762   -6.5683 S.3       12 UNK        -0.2522 
     17 C17        26.6024   -3.7941   -5.7031 C.3       12 UNK        -0.0967 
     18 CA         26.0417   -2.7244   -6.6768 C.3       5 UNK         0.0660 
     19 N          24.6679   -2.3530   -6.3343 N.am      5 UNK        -0.4015 
     20 C          23.6989   -2.0949   -7.2234 C.2       4 UNK         0.4946 
     21 O          23.8457   -2.1787   -8.4430 O.2       4 UNK        -0.5353 
     22 CA         22.3244   -1.6758   -6.6693 C.3       4 UNK         0.0277 
     23 CB         21.3896   -2.8932   -6.5800 C.3       4 UNK        -0.1981 
     24 N          22.3925   -1.0237   -5.3592 N.am      4 UNK        -0.4209 
     25 C          22.9173    0.1902   -5.1435 C.2       3 UNK         0.4942 
     26 O          23.3739    0.9079   -6.0330 O.2       3 UNK        -0.5208 
     27 CA         22.9788    0.6674   -3.6818 C.3       3 UNK         0.0250 
     28 CB         21.6693    1.3738   -3.2955 C.3       3 UNK        -0.1990 
     29 N          23.2786   -0.3803   -2.6946 N.am      3 UNK        -0.4232 
     30 C          24.3362   -1.2038   -2.7251 C.2       2 UNK         0.4993 
     31 O          25.1210   -1.2859   -3.6730 O.2       2 UNK        -0.5286 
     32 CA         24.5415   -2.1229   -1.5117 C.3       2 UNK         0.0209 
     33 CB         24.0113   -3.5329   -1.8173 C.3       2 UNK        -0.1931 
     34 N          25.9604   -2.2099   -1.1573 N.am      2 UNK        -0.4546 
     35 C          26.6923   -1.1909   -0.6804 C.2       1 UNK         0.5154 
     36 O          26.2182   -0.0896   -0.3959 O.2       1 UNK        -0.5181 
     37 C          26.9263   -1.4651   -6.7535 C.2       5 UNK         0.5014 
     38 O          27.6991   -1.3199   -7.7009 O.2       5 UNK        -0.5248 
     39 N          26.7396   -0.5350   -5.8026 N.am      6 UNK        -0.4434 
     40 CA         27.3967    0.7767   -5.7333 C.3       6 UNK         0.0363 
     41 CB         26.9708    1.4824   -4.4375 C.3       6 UNK        -0.1936 
     42 C          27.1270    1.6873   -6.9479 C.2       6 UNK         0.5081 
     43 O          27.8879    2.6257   -7.1812 O.2       6 UNK        -0.5248 
     44 N          26.0876    1.3751   -7.7352 N.am      7 UNK        -0.4718 
     45 CA         25.7997    1.9570   -9.0495 C.3       7 UNK         0.0273 
     46 CB         24.4927    1.3508   -9.5843 C.3       7 UNK        -0.1935 
     47 C          26.9375    1.7816  -10.0784 C.2       7 UNK         0.5018 
     48 O          27.0144    2.5705  -11.0204 O.2       7 UNK        -0.5186 
     49 N          27.8206    0.7923   -9.8676 N.am      8 UNK        -0.4240 
     50 CA         29.0601    0.5898  -10.6246 C.3       8 UNK         0.0235 
     51 CB         29.4301   -0.9023  -10.5841 C.3       8 UNK        -0.2000 
     52 C          30.2291    1.4926  -10.1626 C.2       8 UNK         0.4941 
     53 O          31.3510    1.3000  -10.6344 O.2       8 UNK        -0.5273 
     54 N          29.9567    2.4707   -9.2849 N.am      9 UNK        -0.4262 
     55 CA         30.8659    3.4921   -8.7597 C.3       9 UNK         0.0264 
     56 CB         31.5000    4.3420   -9.8873 C.3       9 UNK        -0.1955 
     57 C          31.8593    2.9006   -7.7463 C.2       9 UNK         0.5031 
     58 O          31.4165    2.3046   -6.7646 O.2       9 UNK        -0.5390 
     59 N          33.1642    3.1260   -7.9477 N.am      10 UNK        -0.4204 
     60 CA         34.2216    2.7453   -7.0072 C.3       10 UNK         0.0237 
     61 CB         35.4791    3.5828   -7.2947 C.3       10 UNK        -0.1985 
     62 C          34.5641    1.2461   -7.0220 C.2       10 UNK         0.4970 
     63 O          34.9602    0.7206   -5.9812 O.2       10 UNK        -0.4914 
     64 N          34.4395    0.6003   -8.1911 N.am      11 UNK        -0.4285 
     65 CA         34.8210   -0.8038   -8.4476 C.3       11 UNK         0.1007 
     66 C          36.3424   -1.1104   -8.2706 C.2       11 UNK         0.5703 
     67 N          37.2249   -0.1191   -8.3264 N.am      11 UNK        -0.7361 
     68 O          36.7404   -2.2632   -8.1175 O.2       11 UNK        -0.4986 
     69 C69        33.9026   -1.8281   -7.7175 C.3       12 UNK        -0.0947 
     70 S70        32.1905   -1.7467   -8.3307 S.3       12 UNK        -0.2240 
     71 C71        31.3271   -0.9581   -6.9368 C.3       12 UNK         0.0194 
     72 H72        27.7945   -5.6180    1.0551 H         1 UNK         0.0906 
     73 H73        29.3769   -5.1714    1.6978 H         1 UNK         0.0906 
     74 H74        29.1405   -5.3133   -0.0446 H         1 UNK         0.0906 
     75 H75        28.9778   -3.3145   -1.0453 H         1 UNK         0.3140 
     76 H76        28.4919   -0.8807    0.4120 H         1 UNK         0.1085 
     77 H77        28.6620    0.1836   -1.8763 H         1 UNK         0.0836 
     78 H78        28.7905   -1.3888   -2.6016 H         1 UNK         0.0836 
     79 H79        32.5555   -2.2260   -2.0141 H         1 UNK         0.0731 
     80 H80        31.1875   -3.0987   -1.3840 H         1 UNK         0.0731 
     81 H81        31.9789   -0.8064   -4.2885 H         1 UNK         0.1312 
     82 H82        29.8895   -3.2571   -7.1148 H         1 UNK         0.1406 
     83 H83        30.0024   -4.3792   -2.9786 H         1 UNK         0.1631 
     84 H84        28.6090   -5.6169   -4.4469 H         1 UNK         0.0717 
     85 H85        29.7142   -5.9784   -5.7513 H         1 UNK         0.0717 
     86 H86        25.7893   -4.3830   -5.2753 H         1 UNK         0.0934 
     87 H87        27.1121   -3.3412   -4.8498 H         1 UNK         0.0934 
     88 H88        26.0265   -3.1554   -7.6806 H         1 UNK         0.0739 
     89 H89        24.4873   -2.1865   -5.3507 H         1 UNK         0.3093 
     90 H90        21.8924   -0.9644   -7.3768 H         1 UNK         0.0818 
     91 H91        21.2965   -3.3849   -7.5495 H         1 UNK         0.0819 
     92 H92        21.7586   -3.6366   -5.8722 H         1 UNK         0.0819 
     93 H93        20.3858   -2.6017   -6.2701 H         1 UNK         0.0819 
     94 H94        22.0363   -1.5400   -4.5680 H         1 UNK         0.3041 
     95 H95        23.7834    1.4012   -3.6177 H         1 UNK         0.0784 
     96 H96        21.4323    2.1711   -4.0018 H         1 UNK         0.0793 
     97 H97        20.8242    0.6843   -3.2870 H         1 UNK         0.0793 
     98 H98        21.7402    1.8314   -2.3085 H         1 UNK         0.0793 
     99 H99        22.6761   -0.4056   -1.8842 H         1 UNK         0.3024 
    100 H100       24.0003   -1.7151   -0.6549 H         1 UNK         0.1171 
    101 H101       22.9481   -3.5079   -2.0600 H         1 UNK         0.0786 
    102 H102       24.5287   -3.9850   -2.6649 H         1 UNK         0.0786 
    103 H103       24.1300   -4.1957   -0.9598 H         1 UNK         0.0786 
    104 H104       26.4333   -3.0743   -1.3732 H         1 UNK         0.2977 
    105 H105       26.0997   -0.7521   -5.0384 H         1 UNK         0.3127 
    106 H106       28.4734    0.5972   -5.6932 H         1 UNK         0.0770 
    107 H107       25.9177    1.7606   -4.4653 H         1 UNK         0.0814 
    108 H108       27.5456    2.3970   -4.2861 H         1 UNK         0.0814 
    109 H109       27.1263    0.8497   -3.5646 H         1 UNK         0.0814 
    110 H110       25.4762    0.6313   -7.4278 H         1 UNK         0.2983 
    111 H111       25.6530    3.0298   -8.9081 H         1 UNK         0.0947 
    112 H112       24.5792    0.2731   -9.7302 H         1 UNK         0.0806 
    113 H113       24.2216    1.7903  -10.5452 H         1 UNK         0.0806 
    114 H114       23.6625    1.5302   -8.9004 H         1 UNK         0.0806 
    115 H115       27.6815    0.1763   -9.0707 H         1 UNK         0.3000 
    116 H116       28.8726    0.8496  -11.6685 H         1 UNK         0.0850 
    117 H117       30.3448   -1.1027  -11.1434 H         1 UNK         0.0810 
    118 H118       28.6430   -1.5162  -11.0218 H         1 UNK         0.0810 
    119 H119       29.5887   -1.2475   -9.5635 H         1 UNK         0.0810 
    120 H120       29.0352    2.4842   -8.8598 H         1 UNK         0.3040 
    121 H121       30.2326    4.1649   -8.1793 H         1 UNK         0.0766 
    122 H122       32.1876    3.7693  -10.5101 H         1 UNK         0.0812 
    123 H123       32.0500    5.1908   -9.4788 H         1 UNK         0.0812 
    124 H124       30.7313    4.7522  -10.5425 H         1 UNK         0.0812 
    125 H125       33.4426    3.6322   -8.7759 H         1 UNK         0.3205 
    126 H126       33.8822    2.9887   -5.9977 H         1 UNK         0.0754 
    127 H127       36.2811    3.3356   -6.5973 H         1 UNK         0.0769 
    128 H128       35.2782    4.6490   -7.1868 H         1 UNK         0.0769 
    129 H129       35.8595    3.4131   -8.3028 H         1 UNK         0.0769 
    130 H130       34.0890    1.1096   -8.9890 H         1 UNK         0.2981 
    131 H131       34.6611   -0.9457   -9.5170 H         1 UNK         0.0541 
    132 H132       36.9222    0.8301   -8.4703 H         1 UNK         0.3459 
    133 H133       38.2056   -0.3273   -8.2235 H         1 UNK         0.3459 
    134 H134       33.9278   -1.6860   -6.6363 H         1 UNK         0.0612 
    135 H135       34.2404   -2.8503   -7.8942 H         1 UNK         0.0612 
    136 H136       30.4087   -0.4961   -7.3017 H         1 UNK         0.0624 
    137 H137       31.9504   -0.1524   -6.5528 H         1 UNK         0.0624 
@<TRIPOS>BOND
     1    1    2 1    
     2    1   72 1    
     3    1   73 1    
     4    1   74 1    
     5    2    3 2    
     6    2    4 am   BACKBONE|DICT|INTERRES
     7    4    5 1    
     8    4   75 1    
     9    5    6 1    
    10    5   35 1    
    11    5   76 1    
    12    6    7 1    
    13    6   77 1    
    14    6   78 1    
    15    7    8 1    
    16    8    9 1    
    17    8   79 1    
    18    8   80 1    
    19    9   10 ar   
    20    9   14 ar   
    21   10   11 ar   
    22   10   81 1    
    23   11   12 ar   
    24   11   71 1    
    25   12   13 ar   
    26   12   82 1    
    27   13   14 ar   
    28   13   15 1    
    29   14   83 1    
    30   15   16 1    
    31   15   84 1    
    32   15   85 1    
    33   16   17 1    
    34   17   18 1    
    35   17   86 1    
    36   17   87 1    
    37   18   19 1    
    38   18   37 1    
    39   18   88 1    
    40   19   20 am   BACKBONE|DICT|INTERRES
    41   19   89 1    
    42   20   21 2    
    43   20   22 1    
    44   22   23 1    
    45   22   24 1    
    46   22   90 1    
    47   23   91 1    
    48   23   92 1    
    49   23   93 1    
    50   24   25 am   BACKBONE|DICT|INTERRES
    51   24   94 1    
    52   25   26 2    
    53   25   27 1    
    54   27   28 1    
    55   27   29 1    
    56   27   95 1    
    57   28   96 1    
    58   28   97 1    
    59   28   98 1    
    60   29   30 am   BACKBONE|DICT|INTERRES
    61   29   99 1    
    62   30   31 2    
    63   30   32 1    
    64   32   33 1    
    65   32   34 1    
    66   32  100 1    
    67   33  101 1    
    68   33  102 1    
    69   33  103 1    
    70   34   35 am   BACKBONE|DICT|INTERRES
    71   34  104 1    
    72   35   36 2    
    73   37   38 2    
    74   37   39 am   BACKBONE|DICT|INTERRES
    75   39   40 1    
    76   39  105 1    
    77   40   41 1    
    78   40   42 1    
    79   40  106 1    
    80   41  107 1    
    81   41  108 1    
    82   41  109 1    
    83   42   43 2    
    84   42   44 am   BACKBONE|DICT|INTERRES
    85   44   45 1    
    86   44  110 1    
    87   45   46 1    
    88   45   47 1    
    89   45  111 1    
    90   46  112 1    
    91   46  113 1    
    92   46  114 1    
    93   47   48 2    
    94   47   49 am   BACKBONE|DICT|INTERRES
    95   49   50 1    
    96   49  115 1    
    97   50   51 1    
    98   50   52 1    
    99   50  116 1    
   100   51  117 1    
   101   51  118 1    
   102   51  119 1    
   103   52   53 2    
   104   52   54 am   BACKBONE|DICT|INTERRES
   105   54   55 1    
   106   54  120 1    
   107   55   56 1    
   108   55   57 1    
   109   55  121 1    
   110   56  122 1    
   111   56  123 1    
   112   56  124 1    
   113   57   58 2    
   114   57   59 am   BACKBONE|DICT|INTERRES
   115   59   60 1    
   116   59  125 1    
   117   60   61 1    
   118   60   62 1    
   119   60  126 1    
   120   61  127 1    
   121   61  128 1    
   122   61  129 1    
   123   62   63 2    
   124   62   64 am   BACKBONE|DICT|INTERRES
   125   64   65 1    
   126   64  130 1    
   127   65   66 1    
   128   65   69 1    
   129   65  131 1    
   130   66   67 am   BACKBONE|DICT|INTERRES
   131   66   68 2    
   132   67  132 1    
   133   67  133 1    
   134   69   70 1    
   135   69  134 1    
   136   69  135 1    
   137   70   71 1    
   138   71  136 1    
   139   71  137 1    
@<TRIPOS>SUBSTRUCTURE
     1 UNK         1 GROUP             0       ****    0 ROOT    
