@<TRIPOS>MOLECULE
3R137
137   139    1
SMALL
USER_CHARGES


@<TRIPOS>ATOM
      1 CA         30.9937    1.3131   -2.3454 C.3       0 UNK        -0.2020 
      2 C          30.2749    0.0123   -2.6689 C.2       0 UNK         0.4855 
      3 O          29.8160   -0.1676   -3.7961 O.2       0 UNK        -0.5197 
      4 N          30.1662   -0.8863   -1.6834 N.am      1 UNK        -0.4892 
      5 CA         29.3316   -2.0907   -1.7460 C.3       1 UNK         0.0835 
      6 C6         29.7811   -3.1696   -0.7270 C.3       12 UNK        -0.0855 
      7 S7         31.5378   -3.6441   -0.8835 S.3       12 UNK        -0.2931 
      8 C8         31.4350   -5.2627   -1.7118 C.3       12 UNK         0.0378 
      9 C9         31.2111   -5.1113   -3.2084 C.ar      12 UNK        -0.0802 
     10 C10        32.2839   -4.7779   -4.0405 C.ar      12 UNK        -0.0944 
     11 C11        32.0956   -4.6312   -5.4172 C.ar      12 UNK        -0.0787 
     12 C12        30.8234   -4.8230   -5.9619 C.ar      12 UNK        -0.0862 
     13 C13        29.7435   -5.1626   -5.1417 C.ar      12 UNK        -0.0733 
     14 C14        29.9443   -5.3128   -3.7651 C.ar      12 UNK        -0.0832 
     15 C15        28.3640   -5.3758   -5.7494 C.3       12 UNK         0.0240 
     16 S16        27.1422   -4.1849   -5.1188 S.3       12 UNK        -0.2522 
     17 C17        27.7861   -2.5926   -5.7377 C.3       12 UNK        -0.0967 
     18 CA         26.8941   -1.9500   -6.8327 C.3       5 UNK         0.0660 
     19 N          25.4750   -1.8908   -6.4778 N.am      5 UNK        -0.4015 
     20 C          24.4735   -1.7400   -7.3565 C.2       4 UNK         0.4946 
     21 O          24.6302   -1.7242   -8.5777 O.2       4 UNK        -0.5353 
     22 CA         23.0528   -1.5678   -6.7867 C.3       4 UNK         0.0277 
     23 CB         22.3292   -2.9231   -6.7364 C.3       4 UNK        -0.1981 
     24 N          23.0262   -0.9568   -5.4551 N.am      4 UNK        -0.4209 
     25 C          23.3773    0.3098   -5.1886 C.2       3 UNK         0.4942 
     26 O          23.7120    1.1240   -6.0477 O.2       3 UNK        -0.5208 
     27 CA         23.4295    0.7108   -3.7021 C.3       3 UNK         0.0250 
     28 CB         22.0436    1.1602   -3.2131 C.3       3 UNK        -0.1990 
     29 N          23.9450   -0.3516   -2.8263 N.am      3 UNK        -0.4232 
     30 C          25.1476   -0.9265   -2.9670 C.2       2 UNK         0.4993 
     31 O          25.9433   -0.6148   -3.8558 O.2       2 UNK        -0.5286 
     32 CA         25.4846   -2.0841   -2.0121 C.3       2 UNK         0.0209 
     33 CB         24.6629   -3.3357   -2.3674 C.3       2 UNK        -0.1931 
     34 N          26.9118   -2.4162   -2.0775 N.am      2 UNK        -0.4546 
     35 C          27.8646   -1.6939   -1.4754 C.2       1 UNK         0.5154 
     36 O          27.6180   -0.7682   -0.6952 O.2       1 UNK        -0.5181 
     37 C          27.3821   -0.5307   -7.1610 C.2       5 UNK         0.5014 
     38 O          27.8861   -0.2994   -8.2594 O.2       5 UNK        -0.5248 
     39 N          27.1620    0.4005   -6.2196 N.am      6 UNK        -0.4434 
     40 CA         27.5521    1.8101   -6.2977 C.3       6 UNK         0.0363 
     41 CB         27.1768    2.5144   -4.9856 C.3       6 UNK        -0.1936 
     42 C          26.9733    2.5597   -7.5094 C.2       6 UNK         0.5081 
     43 O          27.6426    3.4442   -8.0432 O.2       6 UNK        -0.5248 
     44 N          25.7660    2.1716   -7.9449 N.am      7 UNK        -0.4718 
     45 CA         25.1208    2.6486   -9.1707 C.3       7 UNK         0.0273 
     46 CB         23.6823    2.1099   -9.2283 C.3       7 UNK        -0.1935 
     47 C          25.8802    2.2823  -10.4607 C.2       7 UNK         0.5018 
     48 O          25.7694    3.0199  -11.4413 O.2       7 UNK        -0.5186 
     49 N          26.6304    1.1709  -10.4462 N.am      8 UNK        -0.4240 
     50 CA         27.5200    0.7646  -11.5333 C.3       8 UNK         0.0235 
     51 CB         27.5808   -0.7703  -11.6248 C.3       8 UNK        -0.2000 
     52 C          28.9128    1.3766  -11.3283 C.2       8 UNK         0.4941 
     53 O          29.3944    2.0838  -12.2145 O.2       8 UNK        -0.5273 
     54 N          29.5186    1.1218  -10.1613 N.am      9 UNK        -0.4262 
     55 CA         30.8044    1.6693   -9.7346 C.3       9 UNK         0.0264 
     56 CB         31.9685    1.0469  -10.5323 C.3       9 UNK        -0.1955 
     57 C          30.9760    1.3961   -8.2379 C.2       9 UNK         0.5031 
     58 O          30.8532    0.2449   -7.8180 O.2       9 UNK        -0.5390 
     59 N          31.2750    2.4437   -7.4609 N.am      10 UNK        -0.4204 
     60 CA         31.5454    2.3519   -6.0263 C.3       10 UNK         0.0237 
     61 CB         31.3891    3.7435   -5.3882 C.3       10 UNK        -0.1985 
     62 C          32.9419    1.7583   -5.7828 C.2       10 UNK         0.4970 
     63 O          33.9378    2.4736   -5.9079 O.2       10 UNK        -0.4914 
     64 N          32.9819    0.4584   -5.4754 N.am      11 UNK        -0.4285 
     65 CA         34.1992   -0.3092   -5.1802 C.3       11 UNK         0.1007 
     66 C          34.9288    0.1745   -3.8969 C.2       11 UNK         0.5703 
     67 N          36.2546    0.1391   -3.8871 N.am      11 UNK        -0.7361 
     68 O          34.3086    0.5384   -2.9002 O.2       11 UNK        -0.4986 
     69 C69        33.8893   -1.8238   -5.0934 C.3       12 UNK        -0.0947 
     70 S70        33.3083   -2.4926   -6.6862 S.3       12 UNK        -0.2240 
     71 C71        33.2646   -4.2728   -6.3215 C.3       12 UNK         0.0194 
     72 H72        31.3639    1.3314   -1.3206 H         1 UNK         0.0906 
     73 H73        31.8427    1.4524   -3.0100 H         1 UNK         0.0906 
     74 H74        30.3161    2.1561   -2.4777 H         1 UNK         0.0906 
     75 H75        30.5568   -0.6807   -0.7754 H         1 UNK         0.3140 
     76 H76        29.4017   -2.5108   -2.7524 H         1 UNK         0.1085 
     77 H77        29.6340   -2.8112    0.2941 H         1 UNK         0.0836 
     78 H78        29.1583   -4.0613   -0.8192 H         1 UNK         0.0836 
     79 H79        32.3693   -5.8002   -1.5427 H         1 UNK         0.0731 
     80 H80        30.6525   -5.8707   -1.2552 H         1 UNK         0.0731 
     81 H81        33.2652   -4.6238   -3.6125 H         1 UNK         0.1312 
     82 H82        30.6774   -4.7045   -7.0270 H         1 UNK         0.1406 
     83 H83        29.1104   -5.5792   -3.1298 H         1 UNK         0.1631 
     84 H84        28.0250   -6.3858   -5.5152 H         1 UNK         0.0717 
     85 H85        28.3967   -5.3069   -6.8379 H         1 UNK         0.0717 
     86 H86        27.8966   -1.9320   -4.8769 H         1 UNK         0.0934 
     87 H87        28.7984   -2.7258   -6.1230 H         1 UNK         0.0934 
     88 H88        26.9924   -2.5560   -7.7362 H         1 UNK         0.0739 
     89 H89        25.2773   -1.8280   -5.4886 H         1 UNK         0.3093 
     90 H90        22.5061   -0.9112   -7.4672 H         1 UNK         0.0818 
     91 H91        21.2944   -2.8099   -6.4126 H         1 UNK         0.0819 
     92 H92        22.3083   -3.3899   -7.7223 H         1 UNK         0.0819 
     93 H93        22.8214   -3.6202   -6.0569 H         1 UNK         0.0819 
     94 H94        22.7579   -1.5511   -4.6846 H         1 UNK         0.3041 
     95 H95        24.1109    1.5600   -3.6193 H         1 UNK         0.0784 
     96 H96        21.6502    1.9613   -3.8409 H         1 UNK         0.0793 
     97 H97        21.3204    0.3440   -3.2352 H         1 UNK         0.0793 
     98 H98        22.0874    1.5435   -2.1935 H         1 UNK         0.0793 
     99 H99        23.3372   -0.6594   -2.0802 H         1 UNK         0.3024 
    100 H100       25.2362   -1.7753   -0.9938 H         1 UNK         0.1171 
    101 H101       24.9361   -4.1816   -1.7362 H         1 UNK         0.0786 
    102 H102       24.8026   -3.6357   -3.4061 H         1 UNK         0.0786 
    103 H103       23.5961   -3.1618   -2.2222 H         1 UNK         0.0786 
    104 H104       27.1741   -3.1357   -2.7368 H         1 UNK         0.2977 
    105 H105       26.7314    0.1008   -5.3452 H         1 UNK         0.3127 
    106 H106       28.6366    1.8310   -6.3956 H         1 UNK         0.0770 
    107 H107       26.0990    2.5044   -4.8204 H         1 UNK         0.0814 
    108 H108       27.4991    3.5564   -4.9953 H         1 UNK         0.0814 
    109 H109       27.6525    2.0340   -4.1299 H         1 UNK         0.0814 
    110 H110       25.2443    1.5034   -7.3864 H         1 UNK         0.2983 
    111 H111       25.0780    3.7386   -9.1189 H         1 UNK         0.0947 
    112 H112       23.1727    2.4464  -10.1322 H         1 UNK         0.0806 
    113 H113       23.0946    2.4577   -8.3786 H         1 UNK         0.0806 
    114 H114       23.6612    1.0191   -9.2265 H         1 UNK         0.0806 
    115 H115       26.7182    0.6512   -9.5785 H         1 UNK         0.3000 
    116 H116       27.1273    1.1334  -12.4837 H         1 UNK         0.0850 
    117 H117       28.2225   -1.0838  -12.4492 H         1 UNK         0.0810 
    118 H118       26.5921   -1.1931  -11.8043 H         1 UNK         0.0810 
    119 H119       27.9752   -1.2252  -10.7162 H         1 UNK         0.0810 
    120 H120       29.0446    0.5423   -9.4669 H         1 UNK         0.3040 
    121 H121       30.7909    2.7482   -9.9029 H         1 UNK         0.0766 
    122 H122       32.9294    1.4150  -10.1707 H         1 UNK         0.0812 
    123 H123       31.9799   -0.0399  -10.4396 H         1 UNK         0.0812 
    124 H124       31.9098    1.2919  -11.5925 H         1 UNK         0.0812 
    125 H125       31.3921    3.3528   -7.8851 H         1 UNK         0.3205 
    126 H126       30.8056    1.6931   -5.5670 H         1 UNK         0.0754 
    127 H127       31.6049    3.7093   -4.3197 H         1 UNK         0.0769 
    128 H128       30.3706    4.1163   -5.5007 H         1 UNK         0.0769 
    129 H129       32.0654    4.4746   -5.8331 H         1 UNK         0.0769 
    130 H130       32.1154   -0.0614   -5.4490 H         1 UNK         0.2981 
    131 H131       34.8798   -0.1521   -6.0196 H         1 UNK         0.0541 
    132 H132       36.7753   -0.1699   -4.6932 H         1 UNK         0.3459 
    133 H133       36.7448    0.4342   -3.0573 H         1 UNK         0.3459 
    134 H134       33.1343   -2.0163   -4.3285 H         1 UNK         0.0612 
    135 H135       34.7804   -2.3829   -4.8014 H         1 UNK         0.0612 
    136 H136       33.1805   -4.8206   -7.2611 H         1 UNK         0.0624 
    137 H137       34.2108   -4.5804   -5.8736 H         1 UNK         0.0624 
@<TRIPOS>BOND
     1    1    2 1    
     2    1   72 1    
     3    1   73 1    
     4    1   74 1    
     5    2    3 2    
     6    2    4 am   BACKBONE|DICT|INTERRES
     7    4    5 1    
     8    4   75 1    
     9    5    6 1    
    10    5   35 1    
    11    5   76 1    
    12    6    7 1    
    13    6   77 1    
    14    6   78 1    
    15    7    8 1    
    16    8    9 1    
    17    8   79 1    
    18    8   80 1    
    19    9   10 ar   
    20    9   14 ar   
    21   10   11 ar   
    22   10   81 1    
    23   11   12 ar   
    24   11   71 1    
    25   12   13 ar   
    26   12   82 1    
    27   13   14 ar   
    28   13   15 1    
    29   14   83 1    
    30   15   16 1    
    31   15   84 1    
    32   15   85 1    
    33   16   17 1    
    34   17   18 1    
    35   17   86 1    
    36   17   87 1    
    37   18   19 1    
    38   18   37 1    
    39   18   88 1    
    40   19   20 am   BACKBONE|DICT|INTERRES
    41   19   89 1    
    42   20   21 2    
    43   20   22 1    
    44   22   23 1    
    45   22   24 1    
    46   22   90 1    
    47   23   91 1    
    48   23   92 1    
    49   23   93 1    
    50   24   25 am   BACKBONE|DICT|INTERRES
    51   24   94 1    
    52   25   26 2    
    53   25   27 1    
    54   27   28 1    
    55   27   29 1    
    56   27   95 1    
    57   28   96 1    
    58   28   97 1    
    59   28   98 1    
    60   29   30 am   BACKBONE|DICT|INTERRES
    61   29   99 1    
    62   30   31 2    
    63   30   32 1    
    64   32   33 1    
    65   32   34 1    
    66   32  100 1    
    67   33  101 1    
    68   33  102 1    
    69   33  103 1    
    70   34   35 am   BACKBONE|DICT|INTERRES
    71   34  104 1    
    72   35   36 2    
    73   37   38 2    
    74   37   39 am   BACKBONE|DICT|INTERRES
    75   39   40 1    
    76   39  105 1    
    77   40   41 1    
    78   40   42 1    
    79   40  106 1    
    80   41  107 1    
    81   41  108 1    
    82   41  109 1    
    83   42   43 2    
    84   42   44 am   BACKBONE|DICT|INTERRES
    85   44   45 1    
    86   44  110 1    
    87   45   46 1    
    88   45   47 1    
    89   45  111 1    
    90   46  112 1    
    91   46  113 1    
    92   46  114 1    
    93   47   48 2    
    94   47   49 am   BACKBONE|DICT|INTERRES
    95   49   50 1    
    96   49  115 1    
    97   50   51 1    
    98   50   52 1    
    99   50  116 1    
   100   51  117 1    
   101   51  118 1    
   102   51  119 1    
   103   52   53 2    
   104   52   54 am   BACKBONE|DICT|INTERRES
   105   54   55 1    
   106   54  120 1    
   107   55   56 1    
   108   55   57 1    
   109   55  121 1    
   110   56  122 1    
   111   56  123 1    
   112   56  124 1    
   113   57   58 2    
   114   57   59 am   BACKBONE|DICT|INTERRES
   115   59   60 1    
   116   59  125 1    
   117   60   61 1    
   118   60   62 1    
   119   60  126 1    
   120   61  127 1    
   121   61  128 1    
   122   61  129 1    
   123   62   63 2    
   124   62   64 am   BACKBONE|DICT|INTERRES
   125   64   65 1    
   126   64  130 1    
   127   65   66 1    
   128   65   69 1    
   129   65  131 1    
   130   66   67 am   BACKBONE|DICT|INTERRES
   131   66   68 2    
   132   67  132 1    
   133   67  133 1    
   134   69   70 1    
   135   69  134 1    
   136   69  135 1    
   137   70   71 1    
   138   71  136 1    
   139   71  137 1    
@<TRIPOS>SUBSTRUCTURE
     1 UNK         1 GROUP             0       ****    0 ROOT    
