@<TRIPOS>MOLECULE
3R137
137   139    1
SMALL
USER_CHARGES


@<TRIPOS>ATOM
      1 CA         23.1328   -5.3668   -1.4056 C.3       0 UNK        -0.2020 
      2 C          24.3856   -5.1893   -0.5609 C.2       0 UNK         0.4855 
      3 O          24.5757   -5.9159    0.4150 O.2       0 UNK        -0.5197 
      4 N          25.2388   -4.2307   -0.9287 N.am      1 UNK        -0.4892 
      5 CA         26.4731   -3.8817   -0.2276 C.3       1 UNK         0.0835 
      6 C6         27.6497   -4.8029   -0.6523 C.3       12 UNK        -0.0855 
      7 S7         29.1458   -4.5622    0.3656 S.3       12 UNK        -0.2931 
      8 C8         30.4402   -5.2538   -0.7103 C.3       12 UNK         0.0378 
      9 C9         30.6874   -4.4172   -1.9603 C.ar      12 UNK        -0.0802 
     10 C10        31.3771   -3.2012   -1.8736 C.ar      12 UNK        -0.0944 
     11 C11        31.6819   -2.4745   -3.0301 C.ar      12 UNK        -0.0787 
     12 C12        31.3082   -2.9872   -4.2735 C.ar      12 UNK        -0.0862 
     13 C13        30.5644   -4.1648   -4.3729 C.ar      12 UNK        -0.0733 
     14 C14        30.2645   -4.8821   -3.2113 C.ar      12 UNK        -0.0832 
     15 C15        30.0965   -4.6571   -5.7375 C.3       12 UNK         0.0240 
     16 S16        28.5361   -3.8633   -6.2571 S.3       12 UNK        -0.2522 
     17 C17        29.0782   -2.1342   -6.4658 C.3       12 UNK        -0.0967 
     18 CA         28.0991   -1.2378   -7.2576 C.3       5 UNK         0.0660 
     19 N          26.7281   -1.3129   -6.7338 N.am      5 UNK        -0.4015 
     20 C          25.6705   -0.5813   -7.1160 C.2       4 UNK         0.4946 
     21 O          25.7349    0.3442   -7.9260 O.2       4 UNK        -0.5353 
     22 CA         24.2982   -0.9332   -6.5100 C.3       4 UNK         0.0277 
     23 CB         23.3791   -1.5002   -7.6045 C.3       4 UNK        -0.1981 
     24 N          24.3693   -1.9025   -5.4088 N.am      4 UNK        -0.4209 
     25 C          24.6539   -1.6689   -4.1191 C.2       3 UNK         0.4942 
     26 O          24.7121   -2.5901   -3.3015 O.2       3 UNK        -0.5208 
     27 CA         24.8794   -0.2237   -3.6224 C.3       3 UNK         0.0250 
     28 CB         23.5789    0.3548   -3.0441 C.3       3 UNK        -0.1990 
     29 N          25.9046   -0.2230   -2.5828 N.am      3 UNK        -0.4232 
     30 C          27.2138   -0.3286   -2.8305 C.2       2 UNK         0.4993 
     31 O          27.6947   -0.2268   -3.9550 O.2       2 UNK        -0.5286 
     32 CA         28.1309   -0.6764   -1.6490 C.3       2 UNK         0.0209 
     33 CB         28.1713    0.4397   -0.5871 C.3       2 UNK        -0.1931 
     34 N          27.8030   -1.9889   -1.0787 N.am      2 UNK        -0.4546 
     35 C          26.6786   -2.3736   -0.4569 C.2       1 UNK         0.5154 
     36 O          25.7849   -1.5939   -0.1156 O.2       1 UNK        -0.5181 
     37 C          28.6713    0.1929   -7.3250 C.2       5 UNK         0.5014 
     38 O          29.3099    0.5426   -8.3182 O.2       5 UNK        -0.5248 
     39 N          28.4321    0.9912   -6.2769 N.am      6 UNK        -0.4434 
     40 CA         28.8266    2.3957   -6.1417 C.3       6 UNK         0.0363 
     41 CB         28.3948    2.9100   -4.7595 C.3       6 UNK        -0.1936 
     42 C          28.2815    3.3127   -7.2496 C.2       6 UNK         0.5081 
     43 O          28.9512    4.2817   -7.6058 O.2       6 UNK        -0.5248 
     44 N          27.0961    2.9901   -7.7810 N.am      7 UNK        -0.4718 
     45 CA         26.4871    3.6847   -8.9137 C.3       7 UNK         0.0273 
     46 CB         24.9645    3.7535   -8.7089 C.3       7 UNK        -0.1935 
     47 C          26.8219    2.9815  -10.2367 C.2       7 UNK         0.5018 
     48 O          27.1163    3.6584  -11.2221 O.2       7 UNK        -0.5186 
     49 N          26.7539    1.6430  -10.2399 N.am      8 UNK        -0.4240 
     50 CA         26.8982    0.8048  -11.4303 C.3       8 UNK         0.0235 
     51 CB         26.3885   -0.6115  -11.1171 C.3       8 UNK        -0.2000 
     52 C          28.3244    0.7470  -12.0013 C.2       8 UNK         0.4941 
     53 O          28.4697    0.7107  -13.2243 O.2       8 UNK        -0.5273 
     54 N          29.3425    0.7075  -11.1311 N.am      9 UNK        -0.4262 
     55 CA         30.7391    0.4779  -11.5148 C.3       9 UNK         0.0264 
     56 CB         31.0038   -1.0404  -11.5872 C.3       9 UNK        -0.1955 
     57 C          31.7337    1.1963  -10.5875 C.2       9 UNK         0.5031 
     58 O          32.8703    0.7376  -10.4565 O.2       9 UNK        -0.5390 
     59 N          31.3006    2.2891   -9.9380 N.am      10 UNK        -0.4204 
     60 CA         32.0730    3.1164   -8.9947 C.3       10 UNK         0.0237 
     61 CB         33.1392    3.9361   -9.7528 C.3       10 UNK        -0.1985 
     62 C          32.6688    2.3243   -7.8080 C.2       10 UNK         0.4970 
     63 O          33.7482    2.6637   -7.3205 O.2       10 UNK        -0.4914 
     64 N          31.9565    1.2739   -7.3807 N.am      11 UNK        -0.4285 
     65 CA         32.3624    0.2853   -6.3698 C.3       11 UNK         0.1007 
     66 C          33.5087   -0.6705   -6.8259 C.2       11 UNK         0.5703 
     67 N          33.8798   -0.7149   -8.1007 N.am      11 UNK        -0.7361 
     68 O          34.0496   -1.4211   -6.0192 O.2       11 UNK        -0.4986 
     69 C69        32.5769    0.8998   -4.9471 C.3       12 UNK        -0.0947 
     70 S70        31.4444    0.2132   -3.6883 S.3       12 UNK        -0.2240 
     71 C71        32.4220   -1.1439   -2.9527 C.3       12 UNK         0.0194 
     72 H72        22.2432   -5.2192   -0.7939 H         1 UNK         0.0906 
     73 H73        23.0991   -6.3738   -1.8206 H         1 UNK         0.0906 
     74 H74        23.0965   -4.6578   -2.2330 H         1 UNK         0.0906 
     75 H75        25.0161   -3.6333   -1.7256 H         1 UNK         0.3140 
     76 H76        26.3111   -4.0017    0.8462 H         1 UNK         0.1085 
     77 H77        27.3543   -5.8477   -0.5433 H         1 UNK         0.0836 
     78 H78        27.8756   -4.6718   -1.7114 H         1 UNK         0.0836 
     79 H79        31.3678   -5.3207   -0.1398 H         1 UNK         0.0731 
     80 H80        30.1756   -6.2791   -0.9744 H         1 UNK         0.0731 
     81 H81        31.6878   -2.8315   -0.9057 H         1 UNK         0.1312 
     82 H82        31.5720   -2.4436   -5.1675 H         1 UNK         0.1406 
     83 H83        29.7141   -5.8106   -3.2842 H         1 UNK         0.1631 
     84 H84        30.8674   -4.4745   -6.4879 H         1 UNK         0.0717 
     85 H85        29.9480   -5.7377   -5.7143 H         1 UNK         0.0717 
     86 H86        29.2421   -1.7183   -5.4700 H         1 UNK         0.0934 
     87 H87        30.0473   -2.1471   -6.9678 H         1 UNK         0.0934 
     88 H88        28.0568   -1.6125   -8.2813 H         1 UNK         0.0739 
     89 H89        26.5775   -2.0404   -6.0502 H         1 UNK         0.3093 
     90 H90        23.8436   -0.0065   -6.1560 H         1 UNK         0.0818 
     91 H91        22.3797   -1.7027   -7.2187 H         1 UNK         0.0819 
     92 H92        23.2672   -0.7927   -8.4278 H         1 UNK         0.0819 
     93 H93        23.7719   -2.4270   -8.0249 H         1 UNK         0.0819 
     94 H94        24.2004   -2.8625   -5.6730 H         1 UNK         0.3041 
     95 H95        25.2228    0.4236   -4.4292 H         1 UNK         0.0784 
     96 H96        22.7953    0.3912   -3.8019 H         1 UNK         0.0793 
     97 H97        23.2039   -0.2469   -2.2149 H         1 UNK         0.0793 
     98 H98        23.7255    1.3719   -2.6799 H         1 UNK         0.0793 
     99 H99        25.6009   -0.4505   -1.6399 H         1 UNK         0.3024 
    100 H100       29.1383   -0.7745   -2.0567 H         1 UNK         0.1171 
    101 H101       28.8682    0.1942    0.2142 H         1 UNK         0.0786 
    102 H102       28.5054    1.3788   -1.0302 H         1 UNK         0.0786 
    103 H103       27.1960    0.6245   -0.1368 H         1 UNK         0.0786 
    104 H104       28.4760   -2.7169   -1.2825 H         1 UNK         0.2977 
    105 H105       27.9951    0.5680   -5.4553 H         1 UNK         0.3127 
    106 H106       29.9138    2.4434   -6.1840 H         1 UNK         0.0770 
    107 H107       27.3164    2.8287   -4.6178 H         1 UNK         0.0814 
    108 H108       28.6664    3.9582   -4.6278 H         1 UNK         0.0814 
    109 H109       28.8812    2.3486   -3.9613 H         1 UNK         0.0814 
    110 H110       26.6378    2.1402   -7.4708 H         1 UNK         0.2983 
    111 H111       26.8643    4.7083   -8.9734 H         1 UNK         0.0947 
    112 H112       24.4825    4.2709   -9.5395 H         1 UNK         0.0806 
    113 H113       24.7132    4.2982   -7.7987 H         1 UNK         0.0806 
    114 H114       24.5169    2.7611   -8.6385 H         1 UNK         0.0806 
    115 H115       26.4682    1.1716   -9.3837 H         1 UNK         0.3000 
    116 H116       26.2559    1.2261  -12.2069 H         1 UNK         0.0850 
    117 H117       25.3497   -0.5957  -10.7863 H         1 UNK         0.0810 
    118 H118       26.9798   -1.0892  -10.3364 H         1 UNK         0.0810 
    119 H119       26.4381   -1.2493  -12.0007 H         1 UNK         0.0810 
    120 H120       29.1508    0.7142  -10.1296 H         1 UNK         0.3040 
    121 H121       30.9137    0.9016  -12.5059 H         1 UNK         0.0766 
    122 H122       30.3260   -1.5307  -12.2859 H         1 UNK         0.0812 
    123 H123       30.8796   -1.5126  -10.6118 H         1 UNK         0.0812 
    124 H124       32.0185   -1.2510  -11.9275 H         1 UNK         0.0812 
    125 H125       30.3459    2.5801  -10.0965 H         1 UNK         0.3205 
    126 H126       31.3687    3.8239   -8.5575 H         1 UNK         0.0754 
    127 H127       33.9148    3.2963  -10.1753 H         1 UNK         0.0769 
    128 H128       33.6306    4.6504   -9.0910 H         1 UNK         0.0769 
    129 H129       32.6946    4.5071  -10.5679 H         1 UNK         0.0769 
    130 H130       31.0826    1.0681   -7.8564 H         1 UNK         0.2981 
    131 H131       31.4981   -0.3732   -6.3179 H         1 UNK         0.0541 
    132 H132       34.6130   -1.3505   -8.3701 H         1 UNK         0.3459 
    133 H133       33.4567   -0.1153   -8.8028 H         1 UNK         0.3459 
    134 H134       32.3871    1.9738   -4.9605 H         1 UNK         0.0612 
    135 H135       33.6092    0.8072   -4.6057 H         1 UNK         0.0612 
    136 H136       33.3839   -1.2440   -3.4550 H         1 UNK         0.0624 
    137 H137       32.6433   -0.8853   -1.9163 H         1 UNK         0.0624 
@<TRIPOS>BOND
     1    1    2 1    
     2    1   72 1    
     3    1   73 1    
     4    1   74 1    
     5    2    3 2    
     6    2    4 am   BACKBONE|DICT|INTERRES
     7    4    5 1    
     8    4   75 1    
     9    5    6 1    
    10    5   35 1    
    11    5   76 1    
    12    6    7 1    
    13    6   77 1    
    14    6   78 1    
    15    7    8 1    
    16    8    9 1    
    17    8   79 1    
    18    8   80 1    
    19    9   10 ar   
    20    9   14 ar   
    21   10   11 ar   
    22   10   81 1    
    23   11   12 ar   
    24   11   71 1    
    25   12   13 ar   
    26   12   82 1    
    27   13   14 ar   
    28   13   15 1    
    29   14   83 1    
    30   15   16 1    
    31   15   84 1    
    32   15   85 1    
    33   16   17 1    
    34   17   18 1    
    35   17   86 1    
    36   17   87 1    
    37   18   19 1    
    38   18   37 1    
    39   18   88 1    
    40   19   20 am   BACKBONE|DICT|INTERRES
    41   19   89 1    
    42   20   21 2    
    43   20   22 1    
    44   22   23 1    
    45   22   24 1    
    46   22   90 1    
    47   23   91 1    
    48   23   92 1    
    49   23   93 1    
    50   24   25 am   BACKBONE|DICT|INTERRES
    51   24   94 1    
    52   25   26 2    
    53   25   27 1    
    54   27   28 1    
    55   27   29 1    
    56   27   95 1    
    57   28   96 1    
    58   28   97 1    
    59   28   98 1    
    60   29   30 am   BACKBONE|DICT|INTERRES
    61   29   99 1    
    62   30   31 2    
    63   30   32 1    
    64   32   33 1    
    65   32   34 1    
    66   32  100 1    
    67   33  101 1    
    68   33  102 1    
    69   33  103 1    
    70   34   35 am   BACKBONE|DICT|INTERRES
    71   34  104 1    
    72   35   36 2    
    73   37   38 2    
    74   37   39 am   BACKBONE|DICT|INTERRES
    75   39   40 1    
    76   39  105 1    
    77   40   41 1    
    78   40   42 1    
    79   40  106 1    
    80   41  107 1    
    81   41  108 1    
    82   41  109 1    
    83   42   43 2    
    84   42   44 am   BACKBONE|DICT|INTERRES
    85   44   45 1    
    86   44  110 1    
    87   45   46 1    
    88   45   47 1    
    89   45  111 1    
    90   46  112 1    
    91   46  113 1    
    92   46  114 1    
    93   47   48 2    
    94   47   49 am   BACKBONE|DICT|INTERRES
    95   49   50 1    
    96   49  115 1    
    97   50   51 1    
    98   50   52 1    
    99   50  116 1    
   100   51  117 1    
   101   51  118 1    
   102   51  119 1    
   103   52   53 2    
   104   52   54 am   BACKBONE|DICT|INTERRES
   105   54   55 1    
   106   54  120 1    
   107   55   56 1    
   108   55   57 1    
   109   55  121 1    
   110   56  122 1    
   111   56  123 1    
   112   56  124 1    
   113   57   58 2    
   114   57   59 am   BACKBONE|DICT|INTERRES
   115   59   60 1    
   116   59  125 1    
   117   60   61 1    
   118   60   62 1    
   119   60  126 1    
   120   61  127 1    
   121   61  128 1    
   122   61  129 1    
   123   62   63 2    
   124   62   64 am   BACKBONE|DICT|INTERRES
   125   64   65 1    
   126   64  130 1    
   127   65   66 1    
   128   65   69 1    
   129   65  131 1    
   130   66   67 am   BACKBONE|DICT|INTERRES
   131   66   68 2    
   132   67  132 1    
   133   67  133 1    
   134   69   70 1    
   135   69  134 1    
   136   69  135 1    
   137   70   71 1    
   138   71  136 1    
   139   71  137 1    
@<TRIPOS>SUBSTRUCTURE
     1 UNK         1 GROUP             0       ****    0 ROOT    
