@<TRIPOS>MOLECULE
3R137
137   139    1
SMALL
USER_CHARGES


@<TRIPOS>ATOM
      1 CA         27.9733   -6.1495    0.5123 C.3       0 UNK        -0.2020 
      2 C          27.6339   -4.8314   -0.1657 C.2       0 UNK         0.4855 
      3 O          27.4183   -4.8108   -1.3773 O.2       0 UNK        -0.5197 
      4 N          27.5828   -3.7382    0.6091 N.am      1 UNK        -0.4892 
      5 CA         27.3047   -2.3437    0.2188 C.3       1 UNK         0.0835 
      6 C6         28.3155   -1.7516   -0.7990 C.3       12 UNK        -0.0855 
      7 S7         29.9991   -1.5840   -0.1147 S.3       12 UNK        -0.2931 
      8 C8         30.8849   -2.9904   -0.8610 C.3       12 UNK         0.0378 
      9 C9         30.9194   -2.9279   -2.3824 C.ar      12 UNK        -0.0802 
     10 C10        31.6712   -1.9473   -3.0358 C.ar      12 UNK        -0.0944 
     11 C11        31.7232   -1.9075   -4.4325 C.ar      12 UNK        -0.0787 
     12 C12        31.0177   -2.8591   -5.1766 C.ar      12 UNK        -0.0862 
     13 C13        30.2582   -3.8437   -4.5341 C.ar      12 UNK        -0.0733 
     14 C14        30.2174   -3.8714   -3.1378 C.ar      12 UNK        -0.0832 
     15 C15        29.5219   -4.9182   -5.3275 C.3       12 UNK         0.0240 
     16 S16        28.5082   -4.2640   -6.6911 S.3       12 UNK        -0.2522 
     17 C17        27.1683   -3.3942   -5.8087 C.3       12 UNK        -0.0967 
     18 CA         26.7314   -2.1259   -6.5870 C.3       5 UNK         0.0660 
     19 N          25.3005   -1.8490   -6.4528 N.am      5 UNK        -0.4015 
     20 C          24.5426   -1.3178   -7.4240 C.2       4 UNK         0.4946 
     21 O          24.9544   -1.0644   -8.5564 O.2       4 UNK        -0.5353 
     22 CA         23.0724   -1.0083   -7.0876 C.3       4 UNK         0.0277 
     23 CB         22.1731   -2.1953   -7.4690 C.3       4 UNK        -0.1981 
     24 N          22.8497   -0.6637   -5.6822 N.am      4 UNK        -0.4209 
     25 C          23.3388    0.4293   -5.0805 C.2       3 UNK         0.4942 
     26 O          24.0158    1.2835   -5.6513 O.2       3 UNK        -0.5208 
     27 CA         23.0712    0.5614   -3.5720 C.3       3 UNK         0.0250 
     28 CB         21.7121    1.2353   -3.3248 C.3       3 UNK        -0.1990 
     29 N          23.1359   -0.7040   -2.8279 N.am      3 UNK        -0.4232 
     30 C          24.1782   -1.5471   -2.8206 C.2       2 UNK         0.4993 
     31 O          25.1739   -1.4216   -3.5392 O.2       2 UNK        -0.5286 
     32 CA         24.0891   -2.7552   -1.8771 C.3       2 UNK         0.0209 
     33 CB         23.7645   -4.0310   -2.6704 C.3       2 UNK        -0.1931 
     34 N          25.3566   -2.9394   -1.1717 N.am      2 UNK        -0.4546 
     35 C          25.8567   -2.1001   -0.2575 C.2       1 UNK         0.5154 
     36 O          25.2224   -1.1515    0.2080 O.2       1 UNK        -0.5181 
     37 C          27.5560   -0.8861   -6.1999 C.2       5 UNK         0.5014 
     38 O          28.5053   -0.5560   -6.9065 O.2       5 UNK        -0.5248 
     39 N          27.1510   -0.1853   -5.1292 N.am      6 UNK        -0.4434 
     40 CA         27.7774    1.0513   -4.6469 C.3       6 UNK         0.0363 
     41 CB         27.0691    1.5112   -3.3634 C.3       6 UNK        -0.1936 
     42 C          27.7861    2.1916   -5.6840 C.2       6 UNK         0.5081 
     43 O          28.7172    2.9964   -5.6952 O.2       6 UNK        -0.5248 
     44 N          26.7516    2.2418   -6.5329 N.am      7 UNK        -0.4718 
     45 CA         26.6192    3.1968   -7.6334 C.3       7 UNK         0.0273 
     46 CB         25.1219    3.4019   -7.9212 C.3       7 UNK        -0.1935 
     47 C          27.3572    2.7749   -8.9196 C.2       7 UNK         0.5018 
     48 O          27.4009    3.5757   -9.8558 O.2       7 UNK        -0.5186 
     49 N          27.8839    1.5427   -8.9866 N.am      8 UNK        -0.4240 
     50 CA         28.5378    1.0027  -10.1811 C.3       8 UNK         0.0235 
     51 CB         28.5329   -0.5349  -10.1220 C.3       8 UNK        -0.2000 
     52 C          29.9734    1.5261  -10.3410 C.2       8 UNK         0.4941 
     53 O          30.6288    1.8768   -9.3571 O.2       8 UNK        -0.5273 
     54 N          30.4632    1.4925  -11.5881 N.am      9 UNK        -0.4262 
     55 CA         31.8170    1.8992  -11.9885 C.3       9 UNK         0.0264 
     56 CB         31.8811    1.9645  -13.5242 C.3       9 UNK        -0.1955 
     57 C          32.9511    1.0108  -11.4351 C.2       9 UNK         0.5031 
     58 O          34.1191    1.3753  -11.5764 O.2       9 UNK        -0.5390 
     59 N          32.6013   -0.1291  -10.8221 N.am      10 UNK        -0.4204 
     60 CA         33.5151   -1.0271  -10.1145 C.3       10 UNK         0.0237 
     61 CB         32.7629   -2.3142   -9.7355 C.3       10 UNK        -0.1985 
     62 C          34.1460   -0.3914   -8.8619 C.2       10 UNK         0.4970 
     63 O          35.2710   -0.7528   -8.5141 O.2       10 UNK        -0.4914 
     64 N          33.4211    0.5237   -8.2048 N.am      11 UNK        -0.4285 
     65 CA         33.9031    1.2733   -7.0389 C.3       11 UNK         0.1007 
     66 C          34.8680    2.4153   -7.4550 C.2       11 UNK         0.5703 
     67 N          35.9256    2.6469   -6.6886 N.am      11 UNK        -0.7361 
     68 O          34.6450    3.1197   -8.4378 O.2       11 UNK        -0.4986 
     69 C69        32.7275    1.8285   -6.1935 C.3       12 UNK        -0.0947 
     70 S70        31.5310    0.5928   -5.5745 S.3       12 UNK        -0.2240 
     71 C71        32.5529   -0.8460   -5.1365 C.3       12 UNK         0.0194 
     72 H72        28.8743   -6.5752    0.0713 H         1 UNK         0.0906 
     73 H73        27.1590   -6.8608    0.3766 H         1 UNK         0.0906 
     74 H74        28.1440   -6.0284    1.5818 H         1 UNK         0.0906 
     75 H75        27.7496   -3.8557    1.5993 H         1 UNK         0.3140 
     76 H76        27.4039   -1.7665    1.1402 H         1 UNK         0.1085 
     77 H77        28.0097   -0.7455   -1.0894 H         1 UNK         0.0836 
     78 H78        28.3262   -2.3282   -1.7241 H         1 UNK         0.0836 
     79 H79        31.9084   -2.9977   -0.4839 H         1 UNK         0.0731 
     80 H80        30.4319   -3.9211   -0.5184 H         1 UNK         0.0731 
     81 H81        32.2151   -1.2151   -2.4546 H         1 UNK         0.1312 
     82 H82        31.0587   -2.8310   -6.2570 H         1 UNK         0.1406 
     83 H83        29.6445   -4.6385   -2.6358 H         1 UNK         0.1631 
     84 H84        28.8809   -5.5149   -4.6761 H         1 UNK         0.0717 
     85 H85        30.2603   -5.6046   -5.7437 H         1 UNK         0.0717 
     86 H86        26.3375   -4.0970   -5.7282 H         1 UNK         0.0934 
     87 H87        27.4608   -3.1634   -4.7815 H         1 UNK         0.0934 
     88 H88        26.9247   -2.3064   -7.6473 H         1 UNK         0.0739 
     89 H89        24.9108   -1.9521   -5.5234 H         1 UNK         0.3093 
     90 H90        22.7761   -0.1470   -7.6906 H         1 UNK         0.0818 
     91 H91        22.3000   -2.4578   -8.5204 H         1 UNK         0.0819 
     92 H92        22.4046   -3.0846   -6.8813 H         1 UNK         0.0819 
     93 H93        21.1190   -1.9589   -7.3221 H         1 UNK         0.0819 
     94 H94        22.3045   -1.3103   -5.1308 H         1 UNK         0.3041 
     95 H95        23.8457    1.2110   -3.1618 H         1 UNK         0.0784 
     96 H96        21.6468    2.1874   -3.8538 H         1 UNK         0.0793 
     97 H97        20.8832    0.6146   -3.6676 H         1 UNK         0.0793 
     98 H98        21.5594    1.4459   -2.2661 H         1 UNK         0.0793 
     99 H99        22.3553   -0.8982   -2.2168 H         1 UNK         0.3024 
    100 H100       23.3043   -2.5841   -1.1370 H         1 UNK         0.1171 
    101 H101       24.5327   -4.2500   -3.4137 H         1 UNK         0.0786 
    102 H102       23.6821   -4.8959   -2.0119 H         1 UNK         0.0786 
    103 H103       22.8151   -3.9343   -3.1987 H         1 UNK         0.0786 
    104 H104       25.9721   -3.6824   -1.4960 H         1 UNK         0.2977 
    105 H105       26.3766   -0.5486   -4.5753 H         1 UNK         0.3127 
    106 H106       28.8134    0.8126   -4.4009 H         1 UNK         0.0770 
    107 H107       27.0147    0.7129   -2.6246 H         1 UNK         0.0814 
    108 H108       27.6010    2.3461   -2.9055 H         1 UNK         0.0814 
    109 H109       26.0530    1.8470   -3.5684 H         1 UNK         0.0814 
    110 H110       25.9830    1.5934   -6.3983 H         1 UNK         0.2983 
    111 H111       27.0390    4.1561   -7.3228 H         1 UNK         0.0947 
    112 H112       24.6445    2.4750   -8.2426 H         1 UNK         0.0806 
    113 H113       24.9683    4.1403   -8.7092 H         1 UNK         0.0806 
    114 H114       24.5937    3.7593   -7.0369 H         1 UNK         0.0806 
    115 H115       27.9068    0.9614   -8.1550 H         1 UNK         0.3000 
    116 H116       27.9561    1.3098  -11.0534 H         1 UNK         0.0850 
    117 H117       28.8504   -0.9654  -11.0723 H         1 UNK         0.0810 
    118 H118       27.5358   -0.9225   -9.9104 H         1 UNK         0.0810 
    119 H119       29.2091   -0.9143   -9.3552 H         1 UNK         0.0810 
    120 H120       29.8603    1.1700  -12.3322 H         1 UNK         0.3040 
    121 H121       31.9874    2.9044  -11.5968 H         1 UNK         0.0766 
    122 H122       31.7059    0.9880  -13.9775 H         1 UNK         0.0812 
    123 H123       32.8601    2.3083  -13.8616 H         1 UNK         0.0812 
    124 H124       31.1431    2.6600  -13.9245 H         1 UNK         0.0812 
    125 H125       31.6181   -0.3477  -10.7691 H         1 UNK         0.3205 
    126 H126       34.3262   -1.2877  -10.7978 H         1 UNK         0.0754 
    127 H127       31.9271   -2.1120   -9.0637 H         1 UNK         0.0769 
    128 H128       33.4249   -3.0174   -9.2279 H         1 UNK         0.0769 
    129 H129       32.3711   -2.8208  -10.6178 H         1 UNK         0.0769 
    130 H130       32.5184    0.8041   -8.5672 H         1 UNK         0.2981 
    131 H131       34.4745    0.5880   -6.4112 H         1 UNK         0.0541 
    132 H132       36.5534    3.3960   -6.9357 H         1 UNK         0.3459 
    133 H133       36.1135    2.0858   -5.8724 H         1 UNK         0.3459 
    134 H134       32.1622    2.5622   -6.7719 H         1 UNK         0.0612 
    135 H135       33.1134    2.3636   -5.3241 H         1 UNK         0.0612 
    136 H136       32.9979   -1.2721   -6.0363 H         1 UNK         0.0624 
    137 H137       33.3764   -0.5254   -4.4966 H         1 UNK         0.0624 
@<TRIPOS>BOND
     1    1    2 1    
     2    1   72 1    
     3    1   73 1    
     4    1   74 1    
     5    2    3 2    
     6    2    4 am   BACKBONE|DICT|INTERRES
     7    4    5 1    
     8    4   75 1    
     9    5    6 1    
    10    5   35 1    
    11    5   76 1    
    12    6    7 1    
    13    6   77 1    
    14    6   78 1    
    15    7    8 1    
    16    8    9 1    
    17    8   79 1    
    18    8   80 1    
    19    9   10 ar   
    20    9   14 ar   
    21   10   11 ar   
    22   10   81 1    
    23   11   12 ar   
    24   11   71 1    
    25   12   13 ar   
    26   12   82 1    
    27   13   14 ar   
    28   13   15 1    
    29   14   83 1    
    30   15   16 1    
    31   15   84 1    
    32   15   85 1    
    33   16   17 1    
    34   17   18 1    
    35   17   86 1    
    36   17   87 1    
    37   18   19 1    
    38   18   37 1    
    39   18   88 1    
    40   19   20 am   BACKBONE|DICT|INTERRES
    41   19   89 1    
    42   20   21 2    
    43   20   22 1    
    44   22   23 1    
    45   22   24 1    
    46   22   90 1    
    47   23   91 1    
    48   23   92 1    
    49   23   93 1    
    50   24   25 am   BACKBONE|DICT|INTERRES
    51   24   94 1    
    52   25   26 2    
    53   25   27 1    
    54   27   28 1    
    55   27   29 1    
    56   27   95 1    
    57   28   96 1    
    58   28   97 1    
    59   28   98 1    
    60   29   30 am   BACKBONE|DICT|INTERRES
    61   29   99 1    
    62   30   31 2    
    63   30   32 1    
    64   32   33 1    
    65   32   34 1    
    66   32  100 1    
    67   33  101 1    
    68   33  102 1    
    69   33  103 1    
    70   34   35 am   BACKBONE|DICT|INTERRES
    71   34  104 1    
    72   35   36 2    
    73   37   38 2    
    74   37   39 am   BACKBONE|DICT|INTERRES
    75   39   40 1    
    76   39  105 1    
    77   40   41 1    
    78   40   42 1    
    79   40  106 1    
    80   41  107 1    
    81   41  108 1    
    82   41  109 1    
    83   42   43 2    
    84   42   44 am   BACKBONE|DICT|INTERRES
    85   44   45 1    
    86   44  110 1    
    87   45   46 1    
    88   45   47 1    
    89   45  111 1    
    90   46  112 1    
    91   46  113 1    
    92   46  114 1    
    93   47   48 2    
    94   47   49 am   BACKBONE|DICT|INTERRES
    95   49   50 1    
    96   49  115 1    
    97   50   51 1    
    98   50   52 1    
    99   50  116 1    
   100   51  117 1    
   101   51  118 1    
   102   51  119 1    
   103   52   53 2    
   104   52   54 am   BACKBONE|DICT|INTERRES
   105   54   55 1    
   106   54  120 1    
   107   55   56 1    
   108   55   57 1    
   109   55  121 1    
   110   56  122 1    
   111   56  123 1    
   112   56  124 1    
   113   57   58 2    
   114   57   59 am   BACKBONE|DICT|INTERRES
   115   59   60 1    
   116   59  125 1    
   117   60   61 1    
   118   60   62 1    
   119   60  126 1    
   120   61  127 1    
   121   61  128 1    
   122   61  129 1    
   123   62   63 2    
   124   62   64 am   BACKBONE|DICT|INTERRES
   125   64   65 1    
   126   64  130 1    
   127   65   66 1    
   128   65   69 1    
   129   65  131 1    
   130   66   67 am   BACKBONE|DICT|INTERRES
   131   66   68 2    
   132   67  132 1    
   133   67  133 1    
   134   69   70 1    
   135   69  134 1    
   136   69  135 1    
   137   70   71 1    
   138   71  136 1    
   139   71  137 1    
@<TRIPOS>SUBSTRUCTURE
     1 UNK         1 GROUP             0       ****    0 ROOT    
