@<TRIPOS>MOLECULE
3R137
137   139    1
SMALL
USER_CHARGES


@<TRIPOS>ATOM
      1 CA         30.0929    0.3295   -1.7151 C.3       0 UNK        -0.2020 
      2 C          29.3646   -0.9864   -1.9368 C.2       0 UNK         0.4855 
      3 O          28.8708   -1.2419   -3.0332 O.2       0 UNK        -0.5197 
      4 N          29.2801   -1.8279   -0.8999 N.am      1 UNK        -0.4892 
      5 CA         28.6624   -3.1581   -0.9564 C.3       1 UNK         0.0835 
      6 C6         29.2971   -4.1483    0.0566 C.3       12 UNK        -0.0855 
      7 S7         31.1238   -4.1978   -0.0175 S.3       12 UNK        -0.2931 
      8 C8         31.4415   -5.4257   -1.3259 C.3       12 UNK         0.0378 
      9 C9         31.1471   -4.8816   -2.7188 C.ar      12 UNK        -0.0802 
     10 C10        31.9489   -3.8765   -3.2684 C.ar      12 UNK        -0.0944 
     11 C11        31.7028   -3.3939   -4.5576 C.ar      12 UNK        -0.0787 
     12 C12        30.6363   -3.9185   -5.2953 C.ar      12 UNK        -0.0862 
     13 C13        29.8174   -4.9216   -4.7558 C.ar      12 UNK        -0.0733 
     14 C14        30.0897   -5.4017   -3.4706 C.ar      12 UNK        -0.0832 
     15 C15        28.6690   -5.5602   -5.5388 C.3       12 UNK         0.0240 
     16 S16        27.9585   -4.5396   -6.8718 S.3       12 UNK        -0.2522 
     17 C17        26.9470   -3.3467   -5.9341 C.3       12 UNK        -0.0967 
     18 CA         26.5730   -2.1322   -6.8220 C.3       5 UNK         0.0660 
     19 N          25.2410   -1.5963   -6.5310 N.am      5 UNK        -0.4015 
     20 C          24.5610   -0.7802   -7.3503 C.2       4 UNK         0.4946 
     21 O          24.9835   -0.3964   -8.4415 O.2       4 UNK        -0.5353 
     22 CA         23.1862   -0.2924   -6.8639 C.3       4 UNK         0.0277 
     23 CB         22.1065   -1.3517   -7.1378 C.3       4 UNK        -0.1981 
     24 N          23.1851    0.0586   -5.4424 N.am      4 UNK        -0.4209 
     25 C          23.8172    1.1262   -4.9357 C.2       3 UNK         0.4942 
     26 O          24.4130    1.9588   -5.6209 O.2       3 UNK        -0.5208 
     27 CA         23.8182    1.2668   -3.4010 C.3       3 UNK         0.0250 
     28 CB         22.5443    1.9841   -2.9258 C.3       3 UNK        -0.1990 
     29 N          23.9800    0.0055   -2.6585 N.am      3 UNK        -0.4232 
     30 C          24.9912   -0.8566   -2.8320 C.2       2 UNK         0.4993 
     31 O          25.8263   -0.7514   -3.7305 O.2       2 UNK        -0.5286 
     32 CA         25.0899   -2.0515   -1.8795 C.3       2 UNK         0.0209 
     33 CB         24.2616   -3.2411   -2.3960 C.3       2 UNK        -0.1931 
     34 N          26.5016   -2.4151   -1.8117 N.am      2 UNK        -0.4546 
     35 C          27.1278   -3.0507   -0.8191 C.2       1 UNK         0.5154 
     36 O          26.5518   -3.4976    0.1750 O.2       1 UNK        -0.5181 
     37 C          27.6459   -1.0306   -6.7787 C.2       5 UNK         0.5014 
     38 O          28.4992   -0.9953   -7.6629 O.2       5 UNK        -0.5248 
     39 N          27.5384   -0.1194   -5.8009 N.am      6 UNK        -0.4434 
     40 CA         28.3702    1.0740   -5.6448 C.3       6 UNK         0.0363 
     41 CB         27.8935    1.8781   -4.4242 C.3       6 UNK        -0.1936 
     42 C          28.3718    1.9553   -6.9006 C.2       6 UNK         0.5081 
     43 O          29.4410    2.3598   -7.3560 O.2       6 UNK        -0.5248 
     44 N          27.1762    2.1924   -7.4583 N.am      7 UNK        -0.4718 
     45 CA         26.9766    2.9140   -8.7131 C.3       7 UNK         0.0273 
     46 CB         25.4863    3.2539   -8.8764 C.3       7 UNK        -0.1935 
     47 C          27.5015    2.1399   -9.9340 C.2       7 UNK         0.5018 
     48 O          28.1912    2.7314  -10.7647 O.2       7 UNK        -0.5186 
     49 N          27.1681    0.8437  -10.0257 N.am      8 UNK        -0.4240 
     50 CA         27.5299   -0.0265  -11.1488 C.3       8 UNK         0.0235 
     51 CB         26.7454   -1.3455  -11.0593 C.3       8 UNK        -0.2000 
     52 C          29.0384   -0.3030  -11.2581 C.2       8 UNK         0.4941 
     53 O          29.5911   -0.2020  -12.3542 O.2       8 UNK        -0.5273 
     54 N          29.6747   -0.6534  -10.1331 N.am      9 UNK        -0.4262 
     55 CA         31.1006   -0.9803  -10.0564 C.3       9 UNK         0.0264 
     56 CB         31.3317   -1.9502   -8.8851 C.3       9 UNK        -0.1955 
     57 C          31.9990    0.2587   -9.9072 C.2       9 UNK         0.5031 
     58 O          33.2110    0.1267  -10.0844 O.2       9 UNK        -0.5390 
     59 N          31.4065    1.4175   -9.5755 N.am      10 UNK        -0.4204 
     60 CA         32.0591    2.6918   -9.2527 C.3       10 UNK         0.0237 
     61 CB         32.7887    3.2753  -10.4824 C.3       10 UNK        -0.1985 
     62 C          32.9600    2.5515   -8.0114 C.2       10 UNK         0.4970 
     63 O          34.1669    2.7922   -8.0905 O.2       10 UNK        -0.4914 
     64 N          32.3501    2.1352   -6.8964 N.am      11 UNK        -0.4285 
     65 CA         33.0137    1.8830   -5.6105 C.3       11 UNK         0.1007 
     66 C          32.2707    2.5559   -4.4238 C.2       11 UNK         0.5703 
     67 N          32.8169    2.4674   -3.2180 N.am      11 UNK        -0.7361 
     68 O          31.2197    3.1739   -4.5790 O.2       11 UNK        -0.4986 
     69 C69        33.3187    0.3706   -5.4035 C.3       12 UNK        -0.0947 
     70 S70        31.8547   -0.6813   -5.1161 S.3       12 UNK        -0.2240 
     71 C71        32.6125   -2.3326   -5.1634 C.3       12 UNK         0.0194 
     72 H72        30.6586    0.5962   -2.6067 H         1 UNK         0.0906 
     73 H73        29.3794    1.1275   -1.5142 H         1 UNK         0.0906 
     74 H74        30.7900    0.2689   -0.8797 H         1 UNK         0.0906 
     75 H75        29.6898   -1.5755   -0.0119 H         1 UNK         0.3140 
     76 H76        28.8385   -3.5656   -1.9520 H         1 UNK         0.1085 
     77 H77        29.0249   -3.8721    1.0771 H         1 UNK         0.0836 
     78 H78        28.9046   -5.1552   -0.0971 H         1 UNK         0.0836 
     79 H79        32.4911   -5.7195   -1.2794 H         1 UNK         0.0731 
     80 H80        30.8654   -6.3301   -1.1241 H         1 UNK         0.0731 
     81 H81        32.7708   -3.4758   -2.6909 H         1 UNK         0.1312 
     82 H82        30.4578   -3.5433   -6.2932 H         1 UNK         0.1406 
     83 H83        29.4762   -6.1895   -3.0541 H         1 UNK         0.1631 
     84 H84        29.0389   -6.4851   -5.9831 H         1 UNK         0.0717 
     85 H85        27.8641   -5.8460   -4.8596 H         1 UNK         0.0717 
     86 H86        26.0499   -3.8759   -5.6095 H         1 UNK         0.0934 
     87 H87        27.4646   -3.0416   -5.0208 H         1 UNK         0.0934 
     88 H88        26.5219   -2.4764   -7.8573 H         1 UNK         0.0739 
     89 H89        24.8726   -1.7782   -5.6092 H         1 UNK         0.3093 
     90 H90        22.9342    0.6039   -7.4354 H         1 UNK         0.0818 
     91 H91        21.1147   -0.9840   -6.8740 H         1 UNK         0.0819 
     92 H92        22.0808   -1.6155   -8.1961 H         1 UNK         0.0819 
     93 H93        22.2845   -2.2704   -6.5775 H         1 UNK         0.0819 
     94 H94        22.7121   -0.5680   -4.8076 H         1 UNK         0.3041 
     95 H95        24.6733    1.8954   -3.1437 H         1 UNK         0.0784 
     96 H96        22.4114    2.9320   -3.4497 H         1 UNK         0.0793 
     97 H97        21.6510    1.3845   -3.1052 H         1 UNK         0.0793 
     98 H98        22.5894    2.2105   -1.8603 H         1 UNK         0.0793 
     99 H99        23.3182   -0.1648   -1.9144 H         1 UNK         0.3024 
    100 H100       24.7439   -1.7506   -0.8881 H         1 UNK         0.1171 
    101 H101       24.3353   -4.0960   -1.7236 H         1 UNK         0.0786 
    102 H102       23.2052   -2.9810   -2.4724 H         1 UNK         0.0786 
    103 H103       24.5933   -3.5647   -3.3833 H         1 UNK         0.0786 
    104 H104       27.0732   -1.9944   -2.5445 H         1 UNK         0.2977 
    105 H105       26.8469   -0.2835   -5.0681 H         1 UNK         0.3127 
    106 H106       29.3909    0.7400   -5.4610 H         1 UNK         0.0770 
    107 H107       26.8856    2.2684   -4.5633 H         1 UNK         0.0814 
    108 H108       28.5505    2.7279   -4.2376 H         1 UNK         0.0814 
    109 H109       27.8876    1.2662   -3.5236 H         1 UNK         0.0814 
    110 H110       26.3500    1.8245   -7.0025 H         1 UNK         0.2983 
    111 H111       27.5342    3.8514   -8.6521 H         1 UNK         0.0947 
    112 H112       25.3111    3.8101   -9.7982 H         1 UNK         0.0806 
    113 H113       25.1288    3.8709   -8.0516 H         1 UNK         0.0806 
    114 H114       24.8669    2.3569   -8.9122 H         1 UNK         0.0806 
    115 H115       26.5663    0.4405   -9.3125 H         1 UNK         0.3000 
    116 H116       27.2245    0.4813  -12.0663 H         1 UNK         0.0850 
    117 H117       26.9780   -1.9973  -11.9024 H         1 UNK         0.0810 
    118 H118       25.6697   -1.1688  -11.0732 H         1 UNK         0.0810 
    119 H119       26.9822   -1.8938  -10.1473 H         1 UNK         0.0810 
    120 H120       29.1483   -0.7286   -9.2597 H         1 UNK         0.3040 
    121 H121       31.3960   -1.4896  -10.9763 H         1 UNK         0.0766 
    122 H122       30.7125   -2.8427   -8.9769 H         1 UNK         0.0812 
    123 H123       31.1023   -1.4819   -7.9277 H         1 UNK         0.0812 
    124 H124       32.3716   -2.2767   -8.8456 H         1 UNK         0.0812 
    125 H125       30.4071    1.3980   -9.4198 H         1 UNK         0.3205 
    126 H126       31.2652    3.3913   -8.9873 H         1 UNK         0.0754 
    127 H127       33.1871    4.2663  -10.2621 H         1 UNK         0.0769 
    128 H128       32.1115    3.3787  -11.3303 H         1 UNK         0.0769 
    129 H129       33.6268    2.6528  -10.7970 H         1 UNK         0.0769 
    130 H130       31.3368    2.0510   -6.8940 H         1 UNK         0.2981 
    131 H131       33.9769    2.3957   -5.6304 H         1 UNK         0.0541 
    132 H132       32.3552    2.9118   -2.4407 H         1 UNK         0.3459 
    133 H133       33.6823    1.9729   -3.0710 H         1 UNK         0.3459 
    134 H134       33.8529   -0.0153   -6.2734 H         1 UNK         0.0612 
    135 H135       33.9975    0.2390   -4.5597 H         1 UNK         0.0612 
    136 H136       33.5636   -2.3067   -4.6294 H         1 UNK         0.0624 
    137 H137       32.8469   -2.5900   -6.1971 H         1 UNK         0.0624 
@<TRIPOS>BOND
     1    1    2 1    
     2    1   72 1    
     3    1   73 1    
     4    1   74 1    
     5    2    3 2    
     6    2    4 am   BACKBONE|DICT|INTERRES
     7    4    5 1    
     8    4   75 1    
     9    5    6 1    
    10    5   35 1    
    11    5   76 1    
    12    6    7 1    
    13    6   77 1    
    14    6   78 1    
    15    7    8 1    
    16    8    9 1    
    17    8   79 1    
    18    8   80 1    
    19    9   10 ar   
    20    9   14 ar   
    21   10   11 ar   
    22   10   81 1    
    23   11   12 ar   
    24   11   71 1    
    25   12   13 ar   
    26   12   82 1    
    27   13   14 ar   
    28   13   15 1    
    29   14   83 1    
    30   15   16 1    
    31   15   84 1    
    32   15   85 1    
    33   16   17 1    
    34   17   18 1    
    35   17   86 1    
    36   17   87 1    
    37   18   19 1    
    38   18   37 1    
    39   18   88 1    
    40   19   20 am   BACKBONE|DICT|INTERRES
    41   19   89 1    
    42   20   21 2    
    43   20   22 1    
    44   22   23 1    
    45   22   24 1    
    46   22   90 1    
    47   23   91 1    
    48   23   92 1    
    49   23   93 1    
    50   24   25 am   BACKBONE|DICT|INTERRES
    51   24   94 1    
    52   25   26 2    
    53   25   27 1    
    54   27   28 1    
    55   27   29 1    
    56   27   95 1    
    57   28   96 1    
    58   28   97 1    
    59   28   98 1    
    60   29   30 am   BACKBONE|DICT|INTERRES
    61   29   99 1    
    62   30   31 2    
    63   30   32 1    
    64   32   33 1    
    65   32   34 1    
    66   32  100 1    
    67   33  101 1    
    68   33  102 1    
    69   33  103 1    
    70   34   35 am   BACKBONE|DICT|INTERRES
    71   34  104 1    
    72   35   36 2    
    73   37   38 2    
    74   37   39 am   BACKBONE|DICT|INTERRES
    75   39   40 1    
    76   39  105 1    
    77   40   41 1    
    78   40   42 1    
    79   40  106 1    
    80   41  107 1    
    81   41  108 1    
    82   41  109 1    
    83   42   43 2    
    84   42   44 am   BACKBONE|DICT|INTERRES
    85   44   45 1    
    86   44  110 1    
    87   45   46 1    
    88   45   47 1    
    89   45  111 1    
    90   46  112 1    
    91   46  113 1    
    92   46  114 1    
    93   47   48 2    
    94   47   49 am   BACKBONE|DICT|INTERRES
    95   49   50 1    
    96   49  115 1    
    97   50   51 1    
    98   50   52 1    
    99   50  116 1    
   100   51  117 1    
   101   51  118 1    
   102   51  119 1    
   103   52   53 2    
   104   52   54 am   BACKBONE|DICT|INTERRES
   105   54   55 1    
   106   54  120 1    
   107   55   56 1    
   108   55   57 1    
   109   55  121 1    
   110   56  122 1    
   111   56  123 1    
   112   56  124 1    
   113   57   58 2    
   114   57   59 am   BACKBONE|DICT|INTERRES
   115   59   60 1    
   116   59  125 1    
   117   60   61 1    
   118   60   62 1    
   119   60  126 1    
   120   61  127 1    
   121   61  128 1    
   122   61  129 1    
   123   62   63 2    
   124   62   64 am   BACKBONE|DICT|INTERRES
   125   64   65 1    
   126   64  130 1    
   127   65   66 1    
   128   65   69 1    
   129   65  131 1    
   130   66   67 am   BACKBONE|DICT|INTERRES
   131   66   68 2    
   132   67  132 1    
   133   67  133 1    
   134   69   70 1    
   135   69  134 1    
   136   69  135 1    
   137   70   71 1    
   138   71  136 1    
   139   71  137 1    
@<TRIPOS>SUBSTRUCTURE
     1 UNK         1 GROUP             0       ****    0 ROOT    
