@<TRIPOS>MOLECULE
3R137
137   139    1
SMALL
USER_CHARGES


@<TRIPOS>ATOM
      1 CA         29.8023   -5.0677   -5.3123 C.3       0 UNK        -0.2020 
      2 C          28.4525   -4.8162   -4.6639 C.2       0 UNK         0.4855 
      3 O          27.4165   -5.0462   -5.2884 O.2       0 UNK        -0.5197 
      4 N          28.4522   -4.3591   -3.4066 N.am      1 UNK        -0.4892 
      5 CA         27.2454   -4.0962   -2.6161 C.3       1 UNK         0.0835 
      6 C6         27.5536   -3.8445   -1.1180 C.3       12 UNK        -0.0855 
      7 S7         28.7297   -5.0578   -0.4205 S.3       12 UNK        -0.2931 
      8 C8         30.0463   -3.9887    0.2502 C.3       12 UNK         0.0378 
      9 C9         30.7029   -3.0940   -0.7974 C.ar      12 UNK        -0.0802 
     10 C10        31.6383   -3.6174   -1.6958 C.ar      12 UNK        -0.0944 
     11 C11        32.3080   -2.7790   -2.5944 C.ar      12 UNK        -0.0787 
     12 C12        32.0191   -1.4109   -2.5950 C.ar      12 UNK        -0.0862 
     13 C13        31.0654   -0.8708   -1.7239 C.ar      12 UNK        -0.0733 
     14 C14        30.4190   -1.7243   -0.8209 C.ar      12 UNK        -0.0832 
     15 C15        30.8144    0.6399   -1.7756 C.3       12 UNK         0.0240 
     16 S16        29.5284    1.3116   -0.6542 S.3       12 UNK        -0.2522 
     17 C17        27.9563    0.9087   -1.4954 C.3       12 UNK        -0.0967 
     18 CA         27.8189    1.6032   -2.8824 C.3       5 UNK         0.0660 
     19 N          28.0411    0.6438   -3.9633 N.am      5 UNK        -0.4015 
     20 C          28.5929    0.9361   -5.1437 C.2       4 UNK         0.4946 
     21 O          28.8181    2.0816   -5.5259 O.2       4 UNK        -0.5353 
     22 CA         28.9704   -0.2526   -6.0299 C.3       4 UNK         0.0277 
     23 CB         30.0666   -1.0809   -5.3489 C.3       4 UNK        -0.1981 
     24 N          27.8182   -1.1107   -6.2791 N.am      4 UNK        -0.4209 
     25 C          27.1849   -1.2202   -7.4523 C.2       3 UNK         0.4942 
     26 O          27.5256   -0.6131   -8.4673 O.2       3 UNK        -0.5208 
     27 CA         25.9780   -2.1744   -7.5231 C.3       3 UNK         0.0250 
     28 CB         26.3773   -3.4833   -8.2214 C.3       3 UNK        -0.1990 
     29 N          25.3832   -2.4680   -6.2158 N.am      3 UNK        -0.4232 
     30 C          24.7772   -1.5526   -5.4441 C.2       2 UNK         0.4993 
     31 O          24.6354   -0.3753   -5.7752 O.2       2 UNK        -0.5286 
     32 CA         24.3252   -1.9969   -4.0407 C.3       2 UNK         0.0209 
     33 CB         22.8651   -2.4736   -4.0731 C.3       2 UNK        -0.1931 
     34 N          25.1726   -3.0367   -3.4392 N.am      2 UNK        -0.4546 
     35 C          26.4871   -2.9002   -3.2160 C.2       1 UNK         0.5154 
     36 O          27.1174   -1.8766   -3.4910 O.2       1 UNK        -0.5181 
     37 C          26.5154    2.4163   -3.0449 C.2       5 UNK         0.5014 
     38 O          26.2962    3.3327   -2.2501 O.2       5 UNK        -0.5248 
     39 N          25.6947    2.1152   -4.0629 N.am      6 UNK        -0.4434 
     40 CA         24.5450    2.9300   -4.4594 C.3       6 UNK         0.0363 
     41 CB         23.2251    2.2294   -4.0900 C.3       6 UNK        -0.1936 
     42 C          24.6154    3.2768   -5.9529 C.2       6 UNK         0.5081 
     43 O          24.5780    4.4597   -6.2924 O.2       6 UNK        -0.5248 
     44 N          24.7130    2.2606   -6.8234 N.am      7 UNK        -0.4718 
     45 CA         24.6634    2.4407   -8.2812 C.3       7 UNK         0.0273 
     46 CB         24.2552    1.1198   -8.9494 C.3       7 UNK        -0.1935 
     47 C          25.9672    2.9693   -8.9074 C.2       7 UNK         0.5018 
     48 O          25.9031    3.5542   -9.9894 O.2       7 UNK        -0.5186 
     49 N          27.1111    2.7498   -8.2395 N.am      8 UNK        -0.4240 
     50 CA         28.4667    3.1485   -8.6520 C.3       8 UNK         0.0235 
     51 CB         28.6171    4.6847   -8.6091 C.3       8 UNK        -0.2000 
     52 C          28.9313    2.5349   -9.9897 C.2       8 UNK         0.4941 
     53 O          29.6815    3.1767  -10.7282 O.2       8 UNK        -0.5273 
     54 N          28.4908    1.3033  -10.2749 N.am      9 UNK        -0.4262 
     55 CA         28.8748    0.5306  -11.4557 C.3       9 UNK         0.0264 
     56 CB         27.6455   -0.2269  -11.9864 C.3       9 UNK        -0.1955 
     57 C          30.0146   -0.4472  -11.1322 C.2       9 UNK         0.5031 
     58 O          30.9568   -0.5579  -11.9185 O.2       9 UNK        -0.5390 
     59 N          29.9055   -1.1430   -9.9935 N.am      10 UNK        -0.4204 
     60 CA         30.8836   -2.1188   -9.5093 C.3       10 UNK         0.0237 
     61 CB         30.1290   -3.2499   -8.7894 C.3       10 UNK        -0.1985 
     62 C          31.9230   -1.4681   -8.5800 C.2       10 UNK         0.4970 
     63 O          31.7348   -0.3328   -8.1381 O.2       10 UNK        -0.4914 
     64 N          32.9929   -2.2223   -8.2912 N.am      11 UNK        -0.4285 
     65 CA         34.1038   -1.8685   -7.3830 C.3       11 UNK         0.1007 
     66 C          34.9696   -0.6531   -7.8418 C.2       11 UNK         0.5703 
     67 N          34.9108   -0.2366   -9.1013 N.am      11 UNK        -0.7361 
     68 O          35.7388   -0.1000   -7.0589 O.2       11 UNK        -0.4986 
     69 C69        33.6685   -1.7722   -5.8888 C.3       12 UNK        -0.0947 
     70 S70        32.9125   -3.3199   -5.2745 S.3       12 UNK        -0.2240 
     71 C71        33.3890   -3.3414   -3.5137 C.3       12 UNK         0.0194 
     72 H72        30.0452   -4.2580   -5.9968 H         1 UNK         0.0906 
     73 H73        30.5961   -5.1392   -4.5689 H         1 UNK         0.0906 
     74 H74        29.7850   -5.9996   -5.8766 H         1 UNK         0.0906 
     75 H75        29.3244   -4.1667   -2.9333 H         1 UNK         0.3140 
     76 H76        26.6132   -4.9841   -2.6867 H         1 UNK         0.1085 
     77 H77        26.6317   -3.8964   -0.5359 H         1 UNK         0.0836 
     78 H78        27.9363   -2.8355   -0.9643 H         1 UNK         0.0836 
     79 H79        30.8087   -4.6214    0.7071 H         1 UNK         0.0731 
     80 H80        29.6319   -3.3887    1.0620 H         1 UNK         0.0731 
     81 H81        31.8687   -4.6739   -1.6683 H         1 UNK         0.1312 
     82 H82        32.5498   -0.7602   -3.2761 H         1 UNK         0.1406 
     83 H83        29.7056   -1.3285   -0.1129 H         1 UNK         0.1631 
     84 H84        30.5925    0.9342   -2.8008 H         1 UNK         0.0717 
     85 H85        31.7512    1.1374   -1.5213 H         1 UNK         0.0717 
     86 H86        27.8684   -0.1758   -1.5729 H         1 UNK         0.0934 
     87 H87        27.1560    1.2053   -0.8144 H         1 UNK         0.0934 
     88 H88        28.5997    2.3633   -2.9586 H         1 UNK         0.0739 
     89 H89        27.8207   -0.3287   -3.7452 H         1 UNK         0.3093 
     90 H90        29.3727    0.1444   -6.9640 H         1 UNK         0.0818 
     91 H91        29.7148   -1.5819   -4.4463 H         1 UNK         0.0819 
     92 H92        30.4568   -1.8439   -6.0177 H         1 UNK         0.0819 
     93 H93        30.9005   -0.4406   -5.0658 H         1 UNK         0.0819 
     94 H94        27.4561   -1.6221   -5.4819 H         1 UNK         0.3041 
     95 H95        25.2091   -1.6973   -8.1308 H         1 UNK         0.0784 
     96 H96        26.7419   -3.2887   -9.2311 H         1 UNK         0.0793 
     97 H97        27.1718   -4.0033   -7.6864 H         1 UNK         0.0793 
     98 H98        25.5298   -4.1631   -8.3099 H         1 UNK         0.0793 
     99 H99        25.5051   -3.4064   -5.8579 H         1 UNK         0.3024 
    100 H100       24.3823   -1.1154   -3.3977 H         1 UNK         0.1171 
    101 H101       22.4953   -2.6899   -3.0706 H         1 UNK         0.0786 
    102 H102       22.2143   -1.7071   -4.4970 H         1 UNK         0.0786 
    103 H103       22.7462   -3.3734   -4.6779 H         1 UNK         0.0786 
    104 H104       24.7200   -3.9074   -3.1985 H         1 UNK         0.2977 
    105 H105       25.9330    1.3445   -4.6716 H         1 UNK         0.3127 
    106 H106       24.5623    3.8835   -3.9268 H         1 UNK         0.0770 
    107 H107       23.1031    1.2736   -4.5968 H         1 UNK         0.0814 
    108 H108       22.3699    2.8494   -4.3615 H         1 UNK         0.0814 
    109 H109       23.1644    2.0471   -3.0172 H         1 UNK         0.0814 
    110 H110       24.6881    1.3024   -6.4755 H         1 UNK         0.2983 
    111 H111       23.8829    3.1734   -8.5004 H         1 UNK         0.0947 
    112 H112       24.0263    1.2752  -10.0045 H         1 UNK         0.0806 
    113 H113       23.3701    0.6860   -8.4836 H         1 UNK         0.0806 
    114 H114       25.0587    0.3888   -8.9034 H         1 UNK         0.0806 
    115 H115       27.0520    2.2644   -7.3556 H         1 UNK         0.3000 
    116 H116       29.1511    2.7397   -7.9105 H         1 UNK         0.0850 
    117 H117       29.6533    4.9827   -8.7735 H         1 UNK         0.0810 
    118 H118       28.3180    5.0833   -7.6396 H         1 UNK         0.0810 
    119 H119       28.0129    5.1723   -9.3746 H         1 UNK         0.0810 
    120 H120       27.9244    0.8149   -9.5850 H         1 UNK         0.3040 
    121 H121       29.2204    1.2014  -12.2453 H         1 UNK         0.0766 
    122 H122       26.8496    0.4629  -12.2678 H         1 UNK         0.0812 
    123 H123       27.2404   -0.9181  -11.2461 H         1 UNK         0.0812 
    124 H124       27.8992   -0.8091  -12.8732 H         1 UNK         0.0812 
    125 H125       29.1096   -0.9558   -9.3891 H         1 UNK         0.3205 
    126 H126       31.4160   -2.5512  -10.3592 H         1 UNK         0.0754 
    127 H127       30.8118   -4.0197   -8.4281 H         1 UNK         0.0769 
    128 H128       29.4213   -3.7390   -9.4590 H         1 UNK         0.0769 
    129 H129       29.5704   -2.8797   -7.9316 H         1 UNK         0.0769 
    130 H130       33.0637   -3.1376   -8.7110 H         1 UNK         0.2981 
    131 H131       34.7930   -2.7109   -7.4494 H         1 UNK         0.0541 
    132 H132       34.2897   -0.6799   -9.7585 H         1 UNK         0.3459 
    133 H133       35.4832    0.5405   -9.3907 H         1 UNK         0.3459 
    134 H134       32.9741   -0.9462   -5.7471 H         1 UNK         0.0612 
    135 H135       34.5330   -1.5483   -5.2626 H         1 UNK         0.0612 
    136 H136       34.3198   -2.7939   -3.3622 H         1 UNK         0.0624 
    137 H137       33.6074   -4.3752   -3.2422 H         1 UNK         0.0624 
@<TRIPOS>BOND
     1    1    2 1    
     2    1   72 1    
     3    1   73 1    
     4    1   74 1    
     5    2    3 2    
     6    2    4 am   BACKBONE|DICT|INTERRES
     7    4    5 1    
     8    4   75 1    
     9    5    6 1    
    10    5   35 1    
    11    5   76 1    
    12    6    7 1    
    13    6   77 1    
    14    6   78 1    
    15    7    8 1    
    16    8    9 1    
    17    8   79 1    
    18    8   80 1    
    19    9   10 ar   
    20    9   14 ar   
    21   10   11 ar   
    22   10   81 1    
    23   11   12 ar   
    24   11   71 1    
    25   12   13 ar   
    26   12   82 1    
    27   13   14 ar   
    28   13   15 1    
    29   14   83 1    
    30   15   16 1    
    31   15   84 1    
    32   15   85 1    
    33   16   17 1    
    34   17   18 1    
    35   17   86 1    
    36   17   87 1    
    37   18   19 1    
    38   18   37 1    
    39   18   88 1    
    40   19   20 am   BACKBONE|DICT|INTERRES
    41   19   89 1    
    42   20   21 2    
    43   20   22 1    
    44   22   23 1    
    45   22   24 1    
    46   22   90 1    
    47   23   91 1    
    48   23   92 1    
    49   23   93 1    
    50   24   25 am   BACKBONE|DICT|INTERRES
    51   24   94 1    
    52   25   26 2    
    53   25   27 1    
    54   27   28 1    
    55   27   29 1    
    56   27   95 1    
    57   28   96 1    
    58   28   97 1    
    59   28   98 1    
    60   29   30 am   BACKBONE|DICT|INTERRES
    61   29   99 1    
    62   30   31 2    
    63   30   32 1    
    64   32   33 1    
    65   32   34 1    
    66   32  100 1    
    67   33  101 1    
    68   33  102 1    
    69   33  103 1    
    70   34   35 am   BACKBONE|DICT|INTERRES
    71   34  104 1    
    72   35   36 2    
    73   37   38 2    
    74   37   39 am   BACKBONE|DICT|INTERRES
    75   39   40 1    
    76   39  105 1    
    77   40   41 1    
    78   40   42 1    
    79   40  106 1    
    80   41  107 1    
    81   41  108 1    
    82   41  109 1    
    83   42   43 2    
    84   42   44 am   BACKBONE|DICT|INTERRES
    85   44   45 1    
    86   44  110 1    
    87   45   46 1    
    88   45   47 1    
    89   45  111 1    
    90   46  112 1    
    91   46  113 1    
    92   46  114 1    
    93   47   48 2    
    94   47   49 am   BACKBONE|DICT|INTERRES
    95   49   50 1    
    96   49  115 1    
    97   50   51 1    
    98   50   52 1    
    99   50  116 1    
   100   51  117 1    
   101   51  118 1    
   102   51  119 1    
   103   52   53 2    
   104   52   54 am   BACKBONE|DICT|INTERRES
   105   54   55 1    
   106   54  120 1    
   107   55   56 1    
   108   55   57 1    
   109   55  121 1    
   110   56  122 1    
   111   56  123 1    
   112   56  124 1    
   113   57   58 2    
   114   57   59 am   BACKBONE|DICT|INTERRES
   115   59   60 1    
   116   59  125 1    
   117   60   61 1    
   118   60   62 1    
   119   60  126 1    
   120   61  127 1    
   121   61  128 1    
   122   61  129 1    
   123   62   63 2    
   124   62   64 am   BACKBONE|DICT|INTERRES
   125   64   65 1    
   126   64  130 1    
   127   65   66 1    
   128   65   69 1    
   129   65  131 1    
   130   66   67 am   BACKBONE|DICT|INTERRES
   131   66   68 2    
   132   67  132 1    
   133   67  133 1    
   134   69   70 1    
   135   69  134 1    
   136   69  135 1    
   137   70   71 1    
   138   71  136 1    
   139   71  137 1    
@<TRIPOS>SUBSTRUCTURE
     1 UNK         1 GROUP             0       ****    0 ROOT    
