@<TRIPOS>MOLECULE
3R137
137   139    1
SMALL
USER_CHARGES


@<TRIPOS>ATOM
      1 CA         30.2267   -5.4872   -3.9095 C.3       0 UNK        -0.2020 
      2 C          29.0082   -5.1133   -3.0778 C.2       0 UNK         0.4855 
      3 O          27.9814   -5.7882   -3.1578 O.2       0 UNK        -0.5197 
      4 N          29.1197   -4.0542   -2.2678 N.am      1 UNK        -0.4892 
      5 CA         28.0653   -3.5697   -1.3703 C.3       1 UNK         0.0835 
      6 C6         28.6151   -2.6432   -0.2464 C.3       12 UNK        -0.0855 
      7 S7         30.1844   -3.2172    0.5020 S.3       12 UNK        -0.2931 
      8 C8         31.2699   -1.7520    0.3500 C.3       12 UNK         0.0378 
      9 C9         31.3001   -1.1661   -1.0582 C.ar      12 UNK        -0.0802 
     10 C10        31.7774   -1.9239   -2.1322 C.ar      12 UNK        -0.0944 
     11 C11        31.7569   -1.4103   -3.4331 C.ar      12 UNK        -0.0787 
     12 C12        31.2606   -0.1188   -3.6469 C.ar      12 UNK        -0.0862 
     13 C13        30.8171    0.6662   -2.5785 C.ar      12 UNK        -0.0733 
     14 C14        30.8388    0.1357   -1.2858 C.ar      12 UNK        -0.0832 
     15 C15        30.3437    2.0954   -2.8253 C.3       12 UNK         0.0240 
     16 S16        28.5915    2.3891   -2.3983 S.3       12 UNK        -0.2522 
     17 C17        27.7161    0.9960   -3.1825 C.3       12 UNK        -0.0967 
     18 CA         27.8102    0.9641   -4.7279 C.3       5 UNK         0.0660 
     19 N          27.6223   -0.3917   -5.2348 N.am      5 UNK        -0.4015 
     20 C          27.8427   -0.8039   -6.4887 C.2       4 UNK         0.4946 
     21 O          28.3190   -0.0969   -7.3782 O.2       4 UNK        -0.5353 
     22 CA         27.4552   -2.2560   -6.8005 C.3       4 UNK         0.0277 
     23 CB         28.5988   -3.2064   -6.4262 C.3       4 UNK        -0.1981 
     24 N          26.2426   -2.6628   -6.0886 N.am      4 UNK        -0.4209 
     25 C          25.0015   -2.3155   -6.4531 C.2       3 UNK         0.4942 
     26 O          24.7438   -1.6401   -7.4492 O.2       3 UNK        -0.5208 
     27 CA         23.8534   -2.7895   -5.5445 C.3       3 UNK         0.0250 
     28 CB         23.4157   -4.2127   -5.9261 C.3       3 UNK        -0.1990 
     29 N          24.1746   -2.7426   -4.1139 N.am      3 UNK        -0.4232 
     30 C          24.4127   -1.6128   -3.4345 C.2       2 UNK         0.4993 
     31 O          24.4378   -0.4951   -3.9477 O.2       2 UNK        -0.5286 
     32 CA         24.7166   -1.7483   -1.9339 C.3       2 UNK         0.0209 
     33 CB         23.4375   -2.0853   -1.1495 C.3       2 UNK        -0.1931 
     34 N          25.7829   -2.6926   -1.5681 N.am      2 UNK        -0.4546 
     35 C          26.9782   -2.8181   -2.1639 C.2       1 UNK         0.5154 
     36 O          27.2645   -2.3080   -3.2495 O.2       1 UNK        -0.5181 
     37 C          26.8513    1.9545   -5.4156 C.2       5 UNK         0.5014 
     38 O          27.3097    2.9743   -5.9348 O.2       5 UNK        -0.5248 
     39 N          25.5575    1.5981   -5.4770 N.am      6 UNK        -0.4434 
     40 CA         24.4982    2.3464   -6.1637 C.3       6 UNK         0.0363 
     41 CB         23.1391    1.6860   -5.8845 C.3       6 UNK        -0.1936 
     42 C          24.7137    2.4923   -7.6803 C.2       6 UNK         0.5081 
     43 O          24.2512    3.4745   -8.2594 O.2       6 UNK        -0.5248 
     44 N          25.4549    1.5590   -8.2921 N.am      7 UNK        -0.4718 
     45 CA         25.8978    1.6010   -9.6897 C.3       7 UNK         0.0273 
     46 CB         26.1159    0.1587  -10.1830 C.3       7 UNK        -0.1935 
     47 C          27.1463    2.4890   -9.8996 C.2       7 UNK         0.5018 
     48 O          27.9400    2.2137  -10.8000 O.2       7 UNK        -0.5186 
     49 N          27.2966    3.5338   -9.0704 N.am      8 UNK        -0.4240 
     50 CA         28.3939    4.5061   -9.0225 C.3       8 UNK         0.0235 
     51 CB         28.4183    5.3728  -10.3002 C.3       8 UNK        -0.2000 
     52 C          29.7507    3.8504   -8.7044 C.2       8 UNK         0.4941 
     53 O          30.7512    4.1709   -9.3488 O.2       8 UNK        -0.5273 
     54 N          29.7462    2.9483   -7.7095 N.am      9 UNK        -0.4262 
     55 CA         30.8787    2.1397   -7.2396 C.3       9 UNK         0.0264 
     56 CB         31.9183    3.0221   -6.5169 C.3       9 UNK        -0.1955 
     57 C          31.4897    1.2818   -8.3632 C.2       9 UNK         0.5031 
     58 O          32.6750    1.4176   -8.6747 O.2       9 UNK        -0.5390 
     59 N          30.6496    0.4308   -8.9676 N.am      10 UNK        -0.4204 
     60 CA         31.0239   -0.4630  -10.0666 C.3       10 UNK         0.0237 
     61 CB         29.7572   -1.0658  -10.6975 C.3       10 UNK        -0.1985 
     62 C          31.9946   -1.5656   -9.6146 C.2       10 UNK         0.4970 
     63 O          33.0375   -1.7551  -10.2411 O.2       10 UNK        -0.4914 
     64 N          31.6211   -2.2527   -8.5271 N.am      11 UNK        -0.4285 
     65 CA         32.3927   -3.2997   -7.8314 C.3       11 UNK         0.1007 
     66 C          32.7690   -4.5445   -8.6937 C.2       11 UNK         0.5703 
     67 N          32.0536   -4.8332   -9.7744 N.am      11 UNK        -0.7361 
     68 O          33.6950   -5.2819   -8.3639 O.2       11 UNK        -0.4986 
     69 C69        33.5929   -2.7234   -7.0250 C.3       12 UNK        -0.0947 
     70 S70        33.1311   -1.3672   -5.8914 S.3       12 UNK        -0.2240 
     71 C71        32.2339   -2.2819   -4.5923 C.3       12 UNK         0.0194 
     72 H72        30.4822   -6.5337   -3.7451 H         1 UNK         0.0906 
     73 H73        30.0208   -5.3532   -4.9704 H         1 UNK         0.0906 
     74 H74        31.0974   -4.8874   -3.6481 H         1 UNK         0.0906 
     75 H75        29.9690   -3.5088   -2.2528 H         1 UNK         0.3140 
     76 H76        27.6040   -4.4418   -0.9014 H         1 UNK         0.1085 
     77 H77        28.7442   -1.6245   -0.6141 H         1 UNK         0.0836 
     78 H78        27.8797   -2.5621    0.5561 H         1 UNK         0.0836 
     79 H79        32.2833   -2.0317    0.6411 H         1 UNK         0.0731 
     80 H80        30.9419   -1.0026    1.0721 H         1 UNK         0.0731 
     81 H81        32.1491   -2.9235   -1.9512 H         1 UNK         0.1312 
     82 H82        31.2341    0.2827   -4.6485 H         1 UNK         0.1406 
     83 H83        30.4830    0.7374   -0.4602 H         1 UNK         0.1631 
     84 H84        30.5019    2.3803   -3.8652 H         1 UNK         0.0717 
     85 H85        30.9606    2.7751   -2.2361 H         1 UNK         0.0717 
     86 H86        28.1457    0.0871   -2.7608 H         1 UNK         0.0934 
     87 H87        26.6762    0.9998   -2.8505 H         1 UNK         0.0934 
     88 H88        28.8204    1.2492   -5.0131 H         1 UNK         0.0739 
     89 H89        27.3074   -1.0823   -4.5545 H         1 UNK         0.3093 
     90 H90        27.2761   -2.3351   -7.8752 H         1 UNK         0.0818 
     91 H91        28.8512   -3.1332   -5.3681 H         1 UNK         0.0819 
     92 H92        28.3423   -4.2436   -6.6431 H         1 UNK         0.0819 
     93 H93        29.4946   -2.9691   -6.9930 H         1 UNK         0.0819 
     94 H94        26.3697   -3.1581   -5.2157 H         1 UNK         0.3041 
     95 H95        23.0086   -2.1183   -5.7145 H         1 UNK         0.0784 
     96 H96        23.1524   -4.2691   -6.9834 H         1 UNK         0.0793 
     97 H97        24.2073   -4.9418   -5.7480 H         1 UNK         0.0793 
     98 H98        22.5380   -4.5236   -5.3591 H         1 UNK         0.0793 
     99 H99        24.2013   -3.6204   -3.6153 H         1 UNK         0.3024 
    100 H100       25.0547   -0.7641   -1.6027 H         1 UNK         0.1171 
    101 H101       23.5989   -2.0082   -0.0741 H         1 UNK         0.0786 
    102 H102       22.6297   -1.3963   -1.4015 H         1 UNK         0.0786 
    103 H103       23.0840   -3.0946   -1.3636 H         1 UNK         0.0786 
    104 H104       25.6476   -3.1716   -0.6890 H         1 UNK         0.2977 
    105 H105       25.2571    0.7509   -4.9946 H         1 UNK         0.3127 
    106 H106       24.4833    3.3528   -5.7405 H         1 UNK         0.0770 
    107 H107       23.1111    0.6576   -6.2479 H         1 UNK         0.0814 
    108 H108       22.3299    2.2292   -6.3746 H         1 UNK         0.0814 
    109 H109       22.9175    1.6702   -4.8173 H         1 UNK         0.0814 
    110 H110       25.8008    0.7869   -7.7385 H         1 UNK         0.2983 
    111 H111       25.1010    2.0392  -10.2944 H         1 UNK         0.0947 
    112 H112       26.3628    0.1365  -11.2451 H         1 UNK         0.0806 
    113 H113       25.2188   -0.4461  -10.0487 H         1 UNK         0.0806 
    114 H114       26.9294   -0.3300   -9.6478 H         1 UNK         0.0806 
    115 H115       26.5865    3.6518   -8.3597 H         1 UNK         0.3000 
    116 H116       28.1761    5.1672   -8.1822 H         1 UNK         0.0850 
    117 H117       29.1519    6.1753  -10.2133 H         1 UNK         0.0810 
    118 H118       27.4500    5.8387  -10.4826 H         1 UNK         0.0810 
    119 H119       28.6812    4.7879  -11.1822 H         1 UNK         0.0810 
    120 H120       28.8607    2.7825   -7.2396 H         1 UNK         0.3040 
    121 H121       30.4793    1.4376   -6.5109 H         1 UNK         0.0766 
    122 H122       31.4605    3.6076   -5.7203 H         1 UNK         0.0812 
    123 H123       32.4054    3.7172   -7.2016 H         1 UNK         0.0812 
    124 H124       32.6998    2.4093   -6.0656 H         1 UNK         0.0812 
    125 H125       29.6981    0.3638   -8.6108 H         1 UNK         0.3205 
    126 H126       31.5299    0.1347  -10.8278 H         1 UNK         0.0754 
    127 H127       30.0109   -1.7484  -11.5097 H         1 UNK         0.0769 
    128 H128       29.1219   -0.2870  -11.1196 H         1 UNK         0.0769 
    129 H129       29.1631   -1.6232   -9.9724 H         1 UNK         0.0769 
    130 H130       30.7473   -1.9967   -8.0961 H         1 UNK         0.2981 
    131 H131       31.7036   -3.7193   -7.1007 H         1 UNK         0.0541 
    132 H132       31.2883   -4.2429  -10.0562 H         1 UNK         0.3459 
    133 H133       32.2942   -5.6446  -10.3214 H         1 UNK         0.3459 
    134 H134       34.0747   -3.5043   -6.4341 H         1 UNK         0.0612 
    135 H135       34.3552   -2.3453   -7.7080 H         1 UNK         0.0612 
    136 H136       31.3600   -2.7616   -5.0311 H         1 UNK         0.0624 
    137 H137       32.8829   -3.0779   -4.2238 H         1 UNK         0.0624 
@<TRIPOS>BOND
     1    1    2 1    
     2    1   72 1    
     3    1   73 1    
     4    1   74 1    
     5    2    3 2    
     6    2    4 am   BACKBONE|DICT|INTERRES
     7    4    5 1    
     8    4   75 1    
     9    5    6 1    
    10    5   35 1    
    11    5   76 1    
    12    6    7 1    
    13    6   77 1    
    14    6   78 1    
    15    7    8 1    
    16    8    9 1    
    17    8   79 1    
    18    8   80 1    
    19    9   10 ar   
    20    9   14 ar   
    21   10   11 ar   
    22   10   81 1    
    23   11   12 ar   
    24   11   71 1    
    25   12   13 ar   
    26   12   82 1    
    27   13   14 ar   
    28   13   15 1    
    29   14   83 1    
    30   15   16 1    
    31   15   84 1    
    32   15   85 1    
    33   16   17 1    
    34   17   18 1    
    35   17   86 1    
    36   17   87 1    
    37   18   19 1    
    38   18   37 1    
    39   18   88 1    
    40   19   20 am   BACKBONE|DICT|INTERRES
    41   19   89 1    
    42   20   21 2    
    43   20   22 1    
    44   22   23 1    
    45   22   24 1    
    46   22   90 1    
    47   23   91 1    
    48   23   92 1    
    49   23   93 1    
    50   24   25 am   BACKBONE|DICT|INTERRES
    51   24   94 1    
    52   25   26 2    
    53   25   27 1    
    54   27   28 1    
    55   27   29 1    
    56   27   95 1    
    57   28   96 1    
    58   28   97 1    
    59   28   98 1    
    60   29   30 am   BACKBONE|DICT|INTERRES
    61   29   99 1    
    62   30   31 2    
    63   30   32 1    
    64   32   33 1    
    65   32   34 1    
    66   32  100 1    
    67   33  101 1    
    68   33  102 1    
    69   33  103 1    
    70   34   35 am   BACKBONE|DICT|INTERRES
    71   34  104 1    
    72   35   36 2    
    73   37   38 2    
    74   37   39 am   BACKBONE|DICT|INTERRES
    75   39   40 1    
    76   39  105 1    
    77   40   41 1    
    78   40   42 1    
    79   40  106 1    
    80   41  107 1    
    81   41  108 1    
    82   41  109 1    
    83   42   43 2    
    84   42   44 am   BACKBONE|DICT|INTERRES
    85   44   45 1    
    86   44  110 1    
    87   45   46 1    
    88   45   47 1    
    89   45  111 1    
    90   46  112 1    
    91   46  113 1    
    92   46  114 1    
    93   47   48 2    
    94   47   49 am   BACKBONE|DICT|INTERRES
    95   49   50 1    
    96   49  115 1    
    97   50   51 1    
    98   50   52 1    
    99   50  116 1    
   100   51  117 1    
   101   51  118 1    
   102   51  119 1    
   103   52   53 2    
   104   52   54 am   BACKBONE|DICT|INTERRES
   105   54   55 1    
   106   54  120 1    
   107   55   56 1    
   108   55   57 1    
   109   55  121 1    
   110   56  122 1    
   111   56  123 1    
   112   56  124 1    
   113   57   58 2    
   114   57   59 am   BACKBONE|DICT|INTERRES
   115   59   60 1    
   116   59  125 1    
   117   60   61 1    
   118   60   62 1    
   119   60  126 1    
   120   61  127 1    
   121   61  128 1    
   122   61  129 1    
   123   62   63 2    
   124   62   64 am   BACKBONE|DICT|INTERRES
   125   64   65 1    
   126   64  130 1    
   127   65   66 1    
   128   65   69 1    
   129   65  131 1    
   130   66   67 am   BACKBONE|DICT|INTERRES
   131   66   68 2    
   132   67  132 1    
   133   67  133 1    
   134   69   70 1    
   135   69  134 1    
   136   69  135 1    
   137   70   71 1    
   138   71  136 1    
   139   71  137 1    
@<TRIPOS>SUBSTRUCTURE
     1 UNK         1 GROUP             0       ****    0 ROOT    
