@<TRIPOS>MOLECULE
3R137
137   139    1
SMALL
USER_CHARGES


@<TRIPOS>ATOM
      1 CA         23.4600   -5.9200   -0.1477 C.3       0 UNK        -0.2020 
      2 C          24.8497   -5.4223    0.2208 C.2       0 UNK         0.4855 
      3 O          25.3379   -5.7180    1.3118 O.2       0 UNK        -0.5197 
      4 N          25.4887   -4.6683   -0.6777 N.am      1 UNK        -0.4892 
      5 CA         26.8077   -4.0669   -0.5016 C.3       1 UNK         0.0835 
      6 C6         27.9427   -5.0739   -0.8204 C.3       12 UNK        -0.0855 
      7 S7         29.5716   -4.5238   -0.2068 S.3       12 UNK        -0.2931 
      8 C8         30.6777   -5.0320   -1.5631 C.3       12 UNK         0.0378 
      9 C9         30.5310   -4.1541   -2.7992 C.ar      12 UNK        -0.0802 
     10 C10        31.0823   -2.8678   -2.8147 C.ar      12 UNK        -0.0944 
     11 C11        30.9829   -2.0623   -3.9538 C.ar      12 UNK        -0.0787 
     12 C12        30.3163   -2.5578   -5.0778 C.ar      12 UNK        -0.0862 
     13 C13        29.7709   -3.8437   -5.0839 C.ar      12 UNK        -0.0733 
     14 C14        29.8803   -4.6388   -3.9397 C.ar      12 UNK        -0.0832 
     15 C15        29.1032   -4.3770   -6.3458 C.3       12 UNK         0.0240 
     16 S16        27.3063   -4.6339   -6.1812 S.3       12 UNK        -0.2522 
     17 C17        26.6955   -3.0366   -5.5505 C.3       12 UNK        -0.0967 
     18 CA         26.4062   -1.9783   -6.6502 C.3       5 UNK         0.0660 
     19 N          25.1693   -1.2475   -6.3665 N.am      5 UNK        -0.4015 
     20 C          24.6442   -0.2507   -7.0938 C.2       4 UNK         0.4946 
     21 O          25.0842    0.1093   -8.1867 O.2       4 UNK        -0.5353 
     22 CA         23.4740    0.5217   -6.4498 C.3       4 UNK         0.0277 
     23 CB         22.1296   -0.0029   -6.9774 C.3       4 UNK        -0.1981 
     24 N          23.4742    0.4828   -4.9767 N.am      4 UNK        -0.4209 
     25 C          24.4774    0.9226   -4.1997 C.2       3 UNK         0.4942 
     26 O          25.4894    1.4528   -4.6588 O.2       3 UNK        -0.5208 
     27 CA         24.3953    0.6657   -2.6836 C.3       3 UNK         0.0250 
     28 CB         23.1371   -0.1086   -2.2393 C.3       3 UNK        -0.1990 
     29 N          25.5808   -0.0973   -2.2932 N.am      3 UNK        -0.4232 
     30 C          26.7264    0.4040   -1.8191 C.2       2 UNK         0.4993 
     31 O          26.8640    1.5793   -1.4752 O.2       2 UNK        -0.5286 
     32 CA         27.9230   -0.5733   -1.7313 C.3       2 UNK         0.0209 
     33 CB         29.1743    0.0810   -1.1130 C.3       2 UNK        -0.1931 
     34 N          27.6459   -1.8154   -1.0002 N.am      2 UNK        -0.4546 
     35 C          26.8566   -2.8204   -1.3997 C.2       1 UNK         0.5154 
     36 O          26.1770   -2.7896   -2.4304 O.2       1 UNK        -0.5181 
     37 C          27.6158   -1.0355   -6.8290 C.2       5 UNK         0.5014 
     38 O          28.4342   -1.2727   -7.7167 O.2       5 UNK        -0.5248 
     39 N          27.7026    0.0275   -6.0101 N.am      6 UNK        -0.4434 
     40 CA         28.7895    1.0084   -6.0570 C.3       6 UNK         0.0363 
     41 CB         28.7226    1.9416   -4.8386 C.3       6 UNK        -0.1936 
     42 C          28.7912    1.8289   -7.3501 C.2       6 UNK         0.5081 
     43 O          29.8661    2.1054   -7.8794 O.2       6 UNK        -0.5248 
     44 N          27.5960    2.1726   -7.8478 N.am      7 UNK        -0.4718 
     45 CA         27.4066    2.8500   -9.1302 C.3       7 UNK         0.0273 
     46 CB         25.9794    3.4150   -9.2125 C.3       7 UNK        -0.1935 
     47 C          27.7005    1.9205  -10.3179 C.2       7 UNK         0.5018 
     48 O          28.3051    2.3662  -11.2929 O.2       7 UNK        -0.5186 
     49 N          27.2904    0.6482  -10.2049 N.am      8 UNK        -0.4240 
     50 CA         27.5326   -0.3956  -11.2032 C.3       8 UNK         0.0235 
     51 CB         26.6984   -1.6417  -10.8636 C.3       8 UNK        -0.2000 
     52 C          29.0224   -0.7527  -11.3470 C.2       8 UNK         0.4941 
     53 O          29.5212   -0.8157  -12.4714 O.2       8 UNK        -0.5273 
     54 N          29.7056   -0.9727  -10.2150 N.am      9 UNK        -0.4262 
     55 CA         31.1316   -1.3109  -10.1641 C.3       9 UNK         0.0264 
     56 CB         31.4320   -2.0242   -8.8376 C.3       9 UNK        -0.1955 
     57 C          32.0633   -0.0979  -10.3287 C.2       9 UNK         0.5031 
     58 O          33.2384   -0.2972  -10.6400 O.2       9 UNK        -0.5390 
     59 N          31.5398    1.1156  -10.0980 N.am      10 UNK        -0.4204 
     60 CA         32.2489    2.3989  -10.0445 C.3       10 UNK         0.0237 
     61 CB         32.8587    2.7666  -11.4149 C.3       10 UNK        -0.1985 
     62 C          33.2638    2.4358   -8.8851 C.2       10 UNK         0.4970 
     63 O          34.4417    2.7301   -9.1006 O.2       10 UNK        -0.4914 
     64 N          32.7819    2.1175   -7.6758 N.am      11 UNK        -0.4285 
     65 CA         33.5549    2.1696   -6.4242 C.3       11 UNK         0.1007 
     66 C          33.9792    3.6180   -6.0537 C.2       11 UNK         0.5703 
     67 N          35.1515    3.7876   -5.4571 N.am      11 UNK        -0.7361 
     68 O          33.2405    4.5792   -6.2621 O.2       11 UNK        -0.4986 
     69 C69        32.7947    1.5136   -5.2411 C.3       12 UNK        -0.0947 
     70 S70        32.5237   -0.2729   -5.4670 S.3       12 UNK        -0.2240 
     71 C71        31.5706   -0.6535   -3.9562 C.3       12 UNK         0.0194 
     72 H72        22.7274   -5.5542    0.5712 H         1 UNK         0.0906 
     73 H73        23.1570   -5.5864   -1.1401 H         1 UNK         0.0906 
     74 H74        23.4360   -7.0093   -0.1346 H         1 UNK         0.0906 
     75 H75        25.0454   -4.4063   -1.5511 H         1 UNK         0.3140 
     76 H76        26.8951   -3.7380    0.5368 H         1 UNK         0.1085 
     77 H77        27.7351   -6.0320   -0.3414 H         1 UNK         0.0836 
     78 H78        27.9820   -5.2825   -1.8907 H         1 UNK         0.0836 
     79 H79        31.7088   -4.9791   -1.2102 H         1 UNK         0.0731 
     80 H80        30.4959   -6.0804   -1.8049 H         1 UNK         0.0731 
     81 H81        31.5899   -2.4972   -1.9345 H         1 UNK         0.1312 
     82 H82        30.2382   -1.9424   -5.9607 H         1 UNK         0.1406 
     83 H83        29.4644   -5.6373   -3.9444 H         1 UNK         0.1631 
     84 H84        29.2792   -3.7097   -7.1885 H         1 UNK         0.0717 
     85 H85        29.5665   -5.3264   -6.6168 H         1 UNK         0.0717 
     86 H86        25.7736   -3.2866   -5.0233 H         1 UNK         0.0934 
     87 H87        27.3601   -2.6588   -4.7715 H         1 UNK         0.0934 
     88 H88        26.2429   -2.4860   -7.6027 H         1 UNK         0.0739 
     89 H89        24.7128   -1.4730   -5.4961 H         1 UNK         0.3093 
     90 H90        23.5767    1.5665   -6.7505 H         1 UNK         0.0818 
     91 H91        21.2968    0.5966   -6.6092 H         1 UNK         0.0819 
     92 H92        22.0968    0.0372   -8.0674 H         1 UNK         0.0819 
     93 H93        21.9550   -1.0389   -6.6845 H         1 UNK         0.0819 
     94 H94        22.6709    0.0612   -4.5325 H         1 UNK         0.3041 
     95 H95        24.3933    1.6390   -2.1888 H         1 UNK         0.0784 
     96 H96        22.2252    0.4374   -2.4851 H         1 UNK         0.0793 
     97 H97        23.0763   -1.0971   -2.6969 H         1 UNK         0.0793 
     98 H98        23.1346   -0.2518   -1.1584 H         1 UNK         0.0793 
     99 H99        25.5811   -1.0914   -2.5144 H         1 UNK         0.3024 
    100 H100       28.1718   -0.8482   -2.7592 H         1 UNK         0.1171 
    101 H101       29.0027    0.3742   -0.0766 H         1 UNK         0.0786 
    102 H102       30.0279   -0.5963   -1.1318 H         1 UNK         0.0786 
    103 H103       29.4667    0.9783   -1.6592 H         1 UNK         0.0786 
    104 H104       28.1576   -1.9362   -0.1376 H         1 UNK         0.2977 
    105 H105       26.9368    0.2392   -5.3785 H         1 UNK         0.3127 
    106 H106       29.7305    0.4599   -6.0213 H         1 UNK         0.0770 
    107 H107       27.8229    2.5569   -4.8460 H         1 UNK         0.0814 
    108 H108       29.5722    2.6245   -4.8218 H         1 UNK         0.0814 
    109 H109       28.7358    1.3837   -3.9053 H         1 UNK         0.0814 
    110 H110       26.7642    1.8772   -7.3555 H         1 UNK         0.2983 
    111 H111       28.1080    3.6861   -9.1817 H         1 UNK         0.0947 
    112 H112       25.8283    3.9526  -10.1495 H         1 UNK         0.0806 
    113 H113       25.7836    4.1171   -8.4018 H         1 UNK         0.0806 
    114 H114       25.2260    2.6282   -9.1642 H         1 UNK         0.0806 
    115 H115       26.7527    0.3862   -9.3847 H         1 UNK         0.3000 
    116 H116       27.1900   -0.0139  -12.1675 H         1 UNK         0.0850 
    117 H117       26.9950   -2.0820   -9.9117 H         1 UNK         0.0810 
    118 H118       26.8178   -2.4101  -11.6284 H         1 UNK         0.0810 
    119 H119       25.6359   -1.4040  -10.8043 H         1 UNK         0.0810 
    120 H120       29.2071   -0.9588   -9.3249 H         1 UNK         0.3040 
    121 H121       31.3538   -2.0049  -10.9776 H         1 UNK         0.0766 
    122 H122       31.2096   -1.3831   -7.9851 H         1 UNK         0.0812 
    123 H123       32.4841   -2.3040   -8.7686 H         1 UNK         0.0812 
    124 H124       30.8476   -2.9379   -8.7395 H         1 UNK         0.0812 
    125 H125       30.5764    1.1540   -9.7896 H         1 UNK         0.3205 
    126 H126       31.4952    3.1537   -9.8149 H         1 UNK         0.0754 
    127 H127       33.2779    3.7733  -11.3948 H         1 UNK         0.0769 
    128 H128       32.1040    2.7451  -12.2011 H         1 UNK         0.0769 
    129 H129       33.6623    2.0881  -11.7023 H         1 UNK         0.0769 
    130 H130       31.7844    1.9490   -7.5896 H         1 UNK         0.2981 
    131 H131       34.4681    1.5954   -6.5938 H         1 UNK         0.0541 
    132 H132       35.4374    4.7181   -5.1952 H         1 UNK         0.3459 
    133 H133       35.7599    3.0057   -5.2699 H         1 UNK         0.3459 
    134 H134       33.3515    1.6401   -4.3104 H         1 UNK         0.0612 
    135 H135       31.8315    2.0024   -5.0923 H         1 UNK         0.0612 
    136 H136       30.7554    0.0606   -3.8504 H         1 UNK         0.0624 
    137 H137       32.2225   -0.5090   -3.0933 H         1 UNK         0.0624 
@<TRIPOS>BOND
     1    1    2 1    
     2    1   72 1    
     3    1   73 1    
     4    1   74 1    
     5    2    3 2    
     6    2    4 am   BACKBONE|DICT|INTERRES
     7    4    5 1    
     8    4   75 1    
     9    5    6 1    
    10    5   35 1    
    11    5   76 1    
    12    6    7 1    
    13    6   77 1    
    14    6   78 1    
    15    7    8 1    
    16    8    9 1    
    17    8   79 1    
    18    8   80 1    
    19    9   10 ar   
    20    9   14 ar   
    21   10   11 ar   
    22   10   81 1    
    23   11   12 ar   
    24   11   71 1    
    25   12   13 ar   
    26   12   82 1    
    27   13   14 ar   
    28   13   15 1    
    29   14   83 1    
    30   15   16 1    
    31   15   84 1    
    32   15   85 1    
    33   16   17 1    
    34   17   18 1    
    35   17   86 1    
    36   17   87 1    
    37   18   19 1    
    38   18   37 1    
    39   18   88 1    
    40   19   20 am   BACKBONE|DICT|INTERRES
    41   19   89 1    
    42   20   21 2    
    43   20   22 1    
    44   22   23 1    
    45   22   24 1    
    46   22   90 1    
    47   23   91 1    
    48   23   92 1    
    49   23   93 1    
    50   24   25 am   BACKBONE|DICT|INTERRES
    51   24   94 1    
    52   25   26 2    
    53   25   27 1    
    54   27   28 1    
    55   27   29 1    
    56   27   95 1    
    57   28   96 1    
    58   28   97 1    
    59   28   98 1    
    60   29   30 am   BACKBONE|DICT|INTERRES
    61   29   99 1    
    62   30   31 2    
    63   30   32 1    
    64   32   33 1    
    65   32   34 1    
    66   32  100 1    
    67   33  101 1    
    68   33  102 1    
    69   33  103 1    
    70   34   35 am   BACKBONE|DICT|INTERRES
    71   34  104 1    
    72   35   36 2    
    73   37   38 2    
    74   37   39 am   BACKBONE|DICT|INTERRES
    75   39   40 1    
    76   39  105 1    
    77   40   41 1    
    78   40   42 1    
    79   40  106 1    
    80   41  107 1    
    81   41  108 1    
    82   41  109 1    
    83   42   43 2    
    84   42   44 am   BACKBONE|DICT|INTERRES
    85   44   45 1    
    86   44  110 1    
    87   45   46 1    
    88   45   47 1    
    89   45  111 1    
    90   46  112 1    
    91   46  113 1    
    92   46  114 1    
    93   47   48 2    
    94   47   49 am   BACKBONE|DICT|INTERRES
    95   49   50 1    
    96   49  115 1    
    97   50   51 1    
    98   50   52 1    
    99   50  116 1    
   100   51  117 1    
   101   51  118 1    
   102   51  119 1    
   103   52   53 2    
   104   52   54 am   BACKBONE|DICT|INTERRES
   105   54   55 1    
   106   54  120 1    
   107   55   56 1    
   108   55   57 1    
   109   55  121 1    
   110   56  122 1    
   111   56  123 1    
   112   56  124 1    
   113   57   58 2    
   114   57   59 am   BACKBONE|DICT|INTERRES
   115   59   60 1    
   116   59  125 1    
   117   60   61 1    
   118   60   62 1    
   119   60  126 1    
   120   61  127 1    
   121   61  128 1    
   122   61  129 1    
   123   62   63 2    
   124   62   64 am   BACKBONE|DICT|INTERRES
   125   64   65 1    
   126   64  130 1    
   127   65   66 1    
   128   65   69 1    
   129   65  131 1    
   130   66   67 am   BACKBONE|DICT|INTERRES
   131   66   68 2    
   132   67  132 1    
   133   67  133 1    
   134   69   70 1    
   135   69  134 1    
   136   69  135 1    
   137   70   71 1    
   138   71  136 1    
   139   71  137 1    
@<TRIPOS>SUBSTRUCTURE
     1 UNK         1 GROUP             0       ****    0 ROOT    
