@<TRIPOS>MOLECULE
3R137
137   139    1
SMALL
USER_CHARGES


@<TRIPOS>ATOM
      1 CA         28.3188    0.6822   -1.4195 C.3       0 UNK        -0.2020 
      2 C          28.0092   -0.6086   -2.1620 C.2       0 UNK         0.4855 
      3 O          27.5428   -0.5668   -3.3016 O.2       0 UNK        -0.5197 
      4 N          28.2392   -1.7561   -1.5094 N.am      1 UNK        -0.4892 
      5 CA         27.9556   -3.0925   -2.0473 C.3       1 UNK         0.0835 
      6 C6         28.6129   -4.2104   -1.1904 C.3       12 UNK        -0.0855 
      7 S7         29.2611   -5.5795   -2.2067 S.3       12 UNK        -0.2931 
      8 C8         31.0149   -5.1030   -2.3901 C.3       12 UNK         0.0378 
      9 C9         31.1582   -3.8111   -3.1817 C.ar      12 UNK        -0.0802 
     10 C10        31.4953   -2.6150   -2.5422 C.ar      12 UNK        -0.0944 
     11 C11        31.5507   -1.4171   -3.2617 C.ar      12 UNK        -0.0787 
     12 C12        31.2521   -1.4186   -4.6275 C.ar      12 UNK        -0.0862 
     13 C13        30.9383   -2.6131   -5.2833 C.ar      12 UNK        -0.0733 
     14 C14        30.9141   -3.8081   -4.5562 C.ar      12 UNK        -0.0832 
     15 C15        30.6111   -2.6004   -6.7724 C.3       12 UNK         0.0240 
     16 S16        29.1564   -3.6208   -7.2016 S.3       12 UNK        -0.2522 
     17 C17        27.8501   -2.9029   -6.1439 C.3       12 UNK        -0.0967 
     18 CA         26.9653   -1.9061   -6.9206 C.3       5 UNK         0.0660 
     19 N          25.6476   -1.7137   -6.3172 N.am      5 UNK        -0.4015 
     20 C          24.6054   -1.1846   -6.9773 C.2       4 UNK         0.4946 
     21 O          24.6321   -0.8797   -8.1700 O.2       4 UNK        -0.5353 
     22 CA         23.3117   -0.9375   -6.1862 C.3       4 UNK         0.0277 
     23 CB         22.3784   -2.1543   -6.2887 C.3       4 UNK        -0.1981 
     24 N          23.5247   -0.6135   -4.7764 N.am      4 UNK        -0.4209 
     25 C          24.2113    0.4305   -4.2978 C.2       3 UNK         0.4942 
     26 O          24.7888    1.2523   -5.0102 O.2       3 UNK        -0.5208 
     27 CA         24.2749    0.5832   -2.7672 C.3       3 UNK         0.0250 
     28 CB         23.0561    1.3642   -2.2403 C.3       3 UNK        -0.1990 
     29 N          24.4704   -0.6740   -2.0260 N.am      3 UNK        -0.4232 
     30 C          23.6671   -1.7444   -1.9126 C.2       2 UNK         0.4993 
     31 O          22.5570   -1.8267   -2.4409 O.2       2 UNK        -0.5286 
     32 CA         24.2182   -2.9283   -1.0909 C.3       2 UNK         0.0209 
     33 CB         23.5458   -4.2726   -1.4461 C.3       2 UNK        -0.1931 
     34 N          25.6848   -3.0280   -1.1550 N.am      2 UNK        -0.4546 
     35 C          26.4380   -3.2919   -2.2370 C.2       1 UNK         0.5154 
     36 O          25.9868   -3.5781   -3.3471 O.2       1 UNK        -0.5181 
     37 C          27.6676   -0.5568   -7.1424 C.2       5 UNK         0.5014 
     38 O          27.9995   -0.2498   -8.2849 O.2       5 UNK        -0.5248 
     39 N          27.8456    0.2432   -6.0782 N.am      6 UNK        -0.4434 
     40 CA         28.4994    1.5597   -6.1317 C.3       6 UNK         0.0363 
     41 CB         28.6229    2.1356   -4.7147 C.3       6 UNK        -0.1936 
     42 C          27.8194    2.5758   -7.0686 C.2       6 UNK         0.5081 
     43 O          28.4869    3.4795   -7.5723 O.2       6 UNK        -0.5248 
     44 N          26.5126    2.4046   -7.3029 N.am      7 UNK        -0.4718 
     45 CA         25.7354    3.1628   -8.2825 C.3       7 UNK         0.0273 
     46 CB         24.2403    2.9400   -8.0010 C.3       7 UNK        -0.1935 
     47 C          26.0607    2.8160   -9.7508 C.2       7 UNK         0.5018 
     48 O          25.7106    3.6090  -10.6265 O.2       7 UNK        -0.5186 
     49 N          26.6819    1.6549  -10.0085 N.am      8 UNK        -0.4240 
     50 CA         26.9230    1.1193  -11.3519 C.3       8 UNK         0.0235 
     51 CB         26.1293   -0.1888  -11.5102 C.3       8 UNK        -0.2000 
     52 C          28.4098    0.8723  -11.6550 C.2       8 UNK         0.4941 
     53 O          28.8238    1.0882  -12.7953 O.2       8 UNK        -0.5273 
     54 N          29.1788    0.4043  -10.6659 N.am      9 UNK        -0.4262 
     55 CA         30.5771   -0.0048  -10.7915 C.3       9 UNK         0.0264 
     56 CB         30.6436   -1.5400  -10.7034 C.3       9 UNK        -0.1955 
     57 C          31.4242    0.6340   -9.6835 C.2       9 UNK         0.5031 
     58 O          30.8863    1.0976   -8.6769 O.2       9 UNK        -0.5390 
     59 N          32.7472    0.6381   -9.8847 N.am      10 UNK        -0.4204 
     60 CA         33.7246    1.1504   -8.9237 C.3       10 UNK         0.0237 
     61 CB         35.0763    1.3372   -9.6330 C.3       10 UNK        -0.1985 
     62 C          33.8797    0.2186   -7.7094 C.2       10 UNK         0.4970 
     63 O          33.8133   -1.0034   -7.8600 O.2       10 UNK        -0.4914 
     64 N          34.1298    0.8226   -6.5427 N.am      11 UNK        -0.4285 
     65 CA         34.4334    0.1314   -5.2794 C.3       11 UNK         0.1007 
     66 C          35.9033   -0.3790   -5.1753 C.2       11 UNK         0.5703 
     67 N          36.8198    0.0566   -6.0329 N.am      11 UNK        -0.7361 
     68 O          36.2180   -1.2012   -4.3190 O.2       11 UNK        -0.4986 
     69 C69        34.0206    1.0271   -4.0789 C.3       12 UNK        -0.0947 
     70 S70        33.7209    0.1264   -2.5196 S.3       12 UNK        -0.2240 
     71 C71        31.9183   -0.1243   -2.5513 C.3       12 UNK         0.0194 
     72 H72        29.2668    1.0972   -1.7565 H         1 UNK         0.0906 
     73 H73        28.3812    0.5243   -0.3431 H         1 UNK         0.0906 
     74 H74        27.5401    1.4212   -1.6051 H         1 UNK         0.0906 
     75 H75        28.6280   -1.7251   -0.5776 H         1 UNK         0.3140 
     76 H76        28.4019   -3.1153   -3.0427 H         1 UNK         0.1085 
     77 H77        29.4444   -3.8105   -0.6081 H         1 UNK         0.0836 
     78 H78        27.9223   -4.6196   -0.4504 H         1 UNK         0.0836 
     79 H79        31.4749   -5.0117   -1.4049 H         1 UNK         0.0731 
     80 H80        31.5490   -5.9036   -2.9040 H         1 UNK         0.0731 
     81 H81        31.7001   -2.6113   -1.4805 H         1 UNK         0.1312 
     82 H82        31.2756   -0.4901   -5.1820 H         1 UNK         0.1406 
     83 H83        30.6593   -4.7356   -5.0509 H         1 UNK         0.1631 
     84 H84        30.4421   -1.5804   -7.1217 H         1 UNK         0.0717 
     85 H85        31.4765   -2.9706   -7.3235 H         1 UNK         0.0717 
     86 H86        27.2431   -3.7382   -5.7914 H         1 UNK         0.0934 
     87 H87        28.2703   -2.4476   -5.2471 H         1 UNK         0.0934 
     88 H88        26.7869   -2.3385   -7.9085 H         1 UNK         0.0739 
     89 H89        25.5511   -1.9380   -5.3359 H         1 UNK         0.3093 
     90 H90        22.8116   -0.0809   -6.6428 H         1 UNK         0.0818 
     91 H91        21.4153   -1.9565   -5.8175 H         1 UNK         0.0819 
     92 H92        22.1817   -2.4099   -7.3310 H         1 UNK         0.0819 
     93 H93        22.8104   -3.0349   -5.8113 H         1 UNK         0.0819 
     94 H94        23.0681   -1.2099   -4.0886 H         1 UNK         0.3041 
     95 H95        25.1614    1.1848   -2.5607 H         1 UNK         0.0784 
     96 H96        22.9740    2.3338   -2.7333 H         1 UNK         0.0793 
     97 H97        22.1211    0.8318   -2.4173 H         1 UNK         0.0793 
     98 H98        23.1380    1.5512   -1.1696 H         1 UNK         0.0793 
     99 H99        25.3774   -0.7588   -1.5915 H         1 UNK         0.3024 
    100 H100       23.9698   -2.7058   -0.0517 H         1 UNK         0.1171 
    101 H101       23.9595   -5.0915   -0.8578 H         1 UNK         0.0786 
    102 H102       22.4747   -4.2384   -1.2427 H         1 UNK         0.0786 
    103 H103       23.6648   -4.5225   -2.5007 H         1 UNK         0.0786 
    104 H104       26.1707   -2.7903   -0.3008 H         1 UNK         0.2977 
    105 H105       27.5553   -0.0763   -5.1560 H         1 UNK         0.3127 
    106 H106       29.5085    1.4014   -6.5141 H         1 UNK         0.0770 
    107 H107       27.6512    2.2079   -4.2243 H         1 UNK         0.0814 
    108 H108       29.0603    3.1348   -4.7306 H         1 UNK         0.0814 
    109 H109       29.2712    1.5123   -4.1016 H         1 UNK         0.0814 
    110 H110       26.0214    1.6883   -6.7795 H         1 UNK         0.2983 
    111 H111       25.9558    4.2235   -8.1436 H         1 UNK         0.0947 
    112 H112       23.6211    3.5247   -8.6827 H         1 UNK         0.0806 
    113 H113       23.9777    3.2403   -6.9863 H         1 UNK         0.0806 
    114 H114       23.9611    1.8927   -8.1225 H         1 UNK         0.0806 
    115 H115       26.9741    1.0692   -9.2306 H         1 UNK         0.3000 
    116 H116       26.5624    1.8186  -12.1091 H         1 UNK         0.0850 
    117 H117       26.2833   -0.6261  -12.4977 H         1 UNK         0.0810 
    118 H118       25.0591   -0.0177  -11.3932 H         1 UNK         0.0810 
    119 H119       26.4284   -0.9328  -10.7701 H         1 UNK         0.0810 
    120 H120       28.7808    0.2733   -9.7342 H         1 UNK         0.3040 
    121 H121       30.9845    0.3178  -11.7519 H         1 UNK         0.0766 
    122 H122       30.0773   -2.0062  -11.5098 H         1 UNK         0.0812 
    123 H123       30.2369   -1.9037   -9.7587 H         1 UNK         0.0812 
    124 H124       31.6701   -1.9008  -10.7780 H         1 UNK         0.0812 
    125 H125       33.1170    0.1991  -10.7153 H         1 UNK         0.3205 
    126 H126       33.3780    2.1269   -8.5774 H         1 UNK         0.0754 
    127 H127       35.8184    1.7654   -8.9581 H         1 UNK         0.0769 
    128 H128       34.9885    2.0140  -10.4833 H         1 UNK         0.0769 
    129 H129       35.4758    0.3897   -9.9978 H         1 UNK         0.0769 
    130 H130       34.1855    1.8301   -6.5163 H         1 UNK         0.2981 
    131 H131       33.8158   -0.7665   -5.2517 H         1 UNK         0.0541 
    132 H132       37.7638   -0.2890   -5.9603 H         1 UNK         0.3459 
    133 H133       36.5814    0.7255   -6.7461 H         1 UNK         0.3459 
    134 H134       34.7803    1.7885   -3.8935 H         1 UNK         0.0612 
    135 H135       33.1124    1.5814   -4.3201 H         1 UNK         0.0612 
    136 H136       31.4218    0.7280   -3.0159 H         1 UNK         0.0624 
    137 H137       31.5569   -0.1588   -1.5226 H         1 UNK         0.0624 
@<TRIPOS>BOND
     1    1    2 1    
     2    1   72 1    
     3    1   73 1    
     4    1   74 1    
     5    2    3 2    
     6    2    4 am   BACKBONE|DICT|INTERRES
     7    4    5 1    
     8    4   75 1    
     9    5    6 1    
    10    5   35 1    
    11    5   76 1    
    12    6    7 1    
    13    6   77 1    
    14    6   78 1    
    15    7    8 1    
    16    8    9 1    
    17    8   79 1    
    18    8   80 1    
    19    9   10 ar   
    20    9   14 ar   
    21   10   11 ar   
    22   10   81 1    
    23   11   12 ar   
    24   11   71 1    
    25   12   13 ar   
    26   12   82 1    
    27   13   14 ar   
    28   13   15 1    
    29   14   83 1    
    30   15   16 1    
    31   15   84 1    
    32   15   85 1    
    33   16   17 1    
    34   17   18 1    
    35   17   86 1    
    36   17   87 1    
    37   18   19 1    
    38   18   37 1    
    39   18   88 1    
    40   19   20 am   BACKBONE|DICT|INTERRES
    41   19   89 1    
    42   20   21 2    
    43   20   22 1    
    44   22   23 1    
    45   22   24 1    
    46   22   90 1    
    47   23   91 1    
    48   23   92 1    
    49   23   93 1    
    50   24   25 am   BACKBONE|DICT|INTERRES
    51   24   94 1    
    52   25   26 2    
    53   25   27 1    
    54   27   28 1    
    55   27   29 1    
    56   27   95 1    
    57   28   96 1    
    58   28   97 1    
    59   28   98 1    
    60   29   30 am   BACKBONE|DICT|INTERRES
    61   29   99 1    
    62   30   31 2    
    63   30   32 1    
    64   32   33 1    
    65   32   34 1    
    66   32  100 1    
    67   33  101 1    
    68   33  102 1    
    69   33  103 1    
    70   34   35 am   BACKBONE|DICT|INTERRES
    71   34  104 1    
    72   35   36 2    
    73   37   38 2    
    74   37   39 am   BACKBONE|DICT|INTERRES
    75   39   40 1    
    76   39  105 1    
    77   40   41 1    
    78   40   42 1    
    79   40  106 1    
    80   41  107 1    
    81   41  108 1    
    82   41  109 1    
    83   42   43 2    
    84   42   44 am   BACKBONE|DICT|INTERRES
    85   44   45 1    
    86   44  110 1    
    87   45   46 1    
    88   45   47 1    
    89   45  111 1    
    90   46  112 1    
    91   46  113 1    
    92   46  114 1    
    93   47   48 2    
    94   47   49 am   BACKBONE|DICT|INTERRES
    95   49   50 1    
    96   49  115 1    
    97   50   51 1    
    98   50   52 1    
    99   50  116 1    
   100   51  117 1    
   101   51  118 1    
   102   51  119 1    
   103   52   53 2    
   104   52   54 am   BACKBONE|DICT|INTERRES
   105   54   55 1    
   106   54  120 1    
   107   55   56 1    
   108   55   57 1    
   109   55  121 1    
   110   56  122 1    
   111   56  123 1    
   112   56  124 1    
   113   57   58 2    
   114   57   59 am   BACKBONE|DICT|INTERRES
   115   59   60 1    
   116   59  125 1    
   117   60   61 1    
   118   60   62 1    
   119   60  126 1    
   120   61  127 1    
   121   61  128 1    
   122   61  129 1    
   123   62   63 2    
   124   62   64 am   BACKBONE|DICT|INTERRES
   125   64   65 1    
   126   64  130 1    
   127   65   66 1    
   128   65   69 1    
   129   65  131 1    
   130   66   67 am   BACKBONE|DICT|INTERRES
   131   66   68 2    
   132   67  132 1    
   133   67  133 1    
   134   69   70 1    
   135   69  134 1    
   136   69  135 1    
   137   70   71 1    
   138   71  136 1    
   139   71  137 1    
@<TRIPOS>SUBSTRUCTURE
     1 UNK         1 GROUP             0       ****    0 ROOT    
