@<TRIPOS>MOLECULE
3R137
137   139    1
SMALL
USER_CHARGES


@<TRIPOS>ATOM
      1 CA         23.1165   -5.0618   -2.3957 C.3       0 UNK        -0.2020 
      2 C          24.2912   -4.2904   -1.8149 C.2       0 UNK         0.4855 
      3 O          24.1095   -3.1849   -1.3030 O.2       0 UNK        -0.5197 
      4 N          25.4972   -4.8692   -1.8857 N.am      1 UNK        -0.4892 
      5 CA         26.7372   -4.2680   -1.3835 C.3       1 UNK         0.0835 
      6 C6         27.8739   -5.3158   -1.2752 C.3       12 UNK        -0.0855 
      7 S7         29.1486   -4.8377   -0.0529 S.3       12 UNK        -0.2931 
      8 C8         30.7088   -5.1871   -0.9294 C.3       12 UNK         0.0378 
      9 C9         30.9612   -4.2168   -2.0748 C.ar      12 UNK        -0.0802 
     10 C10        31.5176   -2.9556   -1.8294 C.ar      12 UNK        -0.0944 
     11 C11        31.7380   -2.0596   -2.8820 C.ar      12 UNK        -0.0787 
     12 C12        31.3923   -2.4359   -4.1805 C.ar      12 UNK        -0.0862 
     13 C13        30.8592   -3.6995   -4.4420 C.ar      12 UNK        -0.0733 
     14 C14        30.6512   -4.5881   -3.3861 C.ar      12 UNK        -0.0832 
     15 C15        30.5014   -4.1040   -5.8629 C.3       12 UNK         0.0240 
     16 S16        28.7754   -3.6876   -6.2503 S.3       12 UNK        -0.2522 
     17 C17        28.8935   -1.8735   -6.3607 C.3       12 UNK        -0.0967 
     18 CA         27.6306   -1.2460   -6.9773 C.3       5 UNK         0.0660 
     19 N          26.4507   -1.4616   -6.1308 N.am      5 UNK        -0.4015 
     20 C          25.1901   -1.1959   -6.4994 C.2       4 UNK         0.4946 
     21 O          24.8843   -0.6848   -7.5768 O.2       4 UNK        -0.5353 
     22 CA         24.0900   -1.5337   -5.4850 C.3       4 UNK         0.0277 
     23 CB         23.8585   -3.0510   -5.4054 C.3       4 UNK        -0.1981 
     24 N          24.4131   -1.0002   -4.1617 N.am      4 UNK        -0.4209 
     25 C          24.2498    0.2864   -3.8195 C.2       3 UNK         0.4942 
     26 O          23.7132    1.1252   -4.5438 O.2       3 UNK        -0.5208 
     27 CA         24.7933    0.7265   -2.4487 C.3       3 UNK         0.0250 
     28 CB         23.7125    0.5803   -1.3659 C.3       3 UNK        -0.1990 
     29 N          25.9992    0.0045   -2.0354 N.am      3 UNK        -0.4232 
     30 C          27.1736    0.0434   -2.6824 C.2       2 UNK         0.4993 
     31 O          27.3713    0.6981   -3.7023 O.2       2 UNK        -0.5286 
     32 CA         28.3078   -0.8312   -2.1281 C.3       2 UNK         0.0209 
     33 CB         29.1073   -0.0572   -1.0683 C.3       2 UNK        -0.1931 
     34 N          27.8430   -2.0961   -1.5562 N.am      2 UNK        -0.4546 
     35 C          27.1468   -3.0323   -2.2145 C.2       1 UNK         0.5154 
     36 O          26.8097   -2.9301   -3.3995 O.2       1 UNK        -0.5181 
     37 C          27.8743    0.2347   -7.3396 C.2       5 UNK         0.5014 
     38 O          28.4169    0.5055   -8.4137 O.2       5 UNK        -0.5248 
     39 N          27.4335    1.1682   -6.4832 N.am      6 UNK        -0.4434 
     40 CA         27.4432    2.6146   -6.7176 C.3       6 UNK         0.0363 
     41 CB         26.9063    3.3439   -5.4759 C.3       6 UNK        -0.1936 
     42 C          26.6650    3.0607   -7.9681 C.2       6 UNK         0.5081 
     43 O          27.0210    4.0866   -8.5461 O.2       6 UNK        -0.5248 
     44 N          25.6647    2.2795   -8.4062 N.am      7 UNK        -0.4718 
     45 CA         24.9275    2.5169   -9.6538 C.3       7 UNK         0.0273 
     46 CB         23.6851    1.6142   -9.6998 C.3       7 UNK        -0.1935 
     47 C          25.7909    2.3130  -10.9138 C.2       7 UNK         0.5018 
     48 O          25.5226    2.9459  -11.9354 O.2       7 UNK        -0.5186 
     49 N          26.8194    1.4601  -10.8107 N.am      8 UNK        -0.4240 
     50 CA         27.8438    1.2435  -11.8350 C.3       8 UNK         0.0235 
     51 CB         28.1497   -0.2635  -11.9034 C.3       8 UNK        -0.2000 
     52 C          29.1320    2.0379  -11.5424 C.2       8 UNK         0.4941 
     53 O          30.0616    1.9777  -12.3479 O.2       8 UNK        -0.5273 
     54 N          29.1802    2.7322  -10.3928 N.am      9 UNK        -0.4262 
     55 CA         30.3349    3.4127   -9.7935 C.3       9 UNK         0.0264 
     56 CB         30.7412    4.6432  -10.6318 C.3       9 UNK        -0.1955 
     57 C          31.5145    2.4579   -9.5094 C.2       9 UNK         0.5031 
     58 O          32.6729    2.8630   -9.6319 O.2       9 UNK        -0.5390 
     59 N          31.2033    1.2046   -9.1535 N.am      10 UNK        -0.4204 
     60 CA         32.1777    0.1371   -8.9366 C.3       10 UNK         0.0237 
     61 CB         31.6170   -1.1632   -9.5381 C.3       10 UNK        -0.1985 
     62 C          32.4734   -0.0462   -7.4421 C.2       10 UNK         0.4970 
     63 O          31.5789    0.1451   -6.6178 O.2       10 UNK        -0.4914 
     64 N          33.7076   -0.4664   -7.1456 N.am      11 UNK        -0.4285 
     65 CA         34.2439   -0.9157   -5.8524 C.3       11 UNK         0.1007 
     66 C          35.6946   -1.4430   -6.0519 C.2       11 UNK         0.5703 
     67 N          36.3310   -1.9496   -5.0062 N.am      11 UNK        -0.7361 
     68 O          36.2480   -1.4103   -7.1515 O.2       11 UNK        -0.4986 
     69 C69        34.1163    0.1372   -4.7065 C.3       12 UNK        -0.0947 
     70 S70        34.0964   -0.5973   -3.0291 S.3       12 UNK        -0.2240 
     71 C71        32.3216   -0.6772   -2.6205 C.3       12 UNK         0.0194 
     72 H72        22.6922   -5.7233   -1.6409 H         1 UNK         0.0906 
     73 H73        22.3340   -4.3776   -2.7226 H         1 UNK         0.0906 
     74 H74        23.4195   -5.6632   -3.2528 H         1 UNK         0.0906 
     75 H75        25.5941   -5.7603   -2.3512 H         1 UNK         0.3140 
     76 H76        26.5088   -3.9176   -0.3738 H         1 UNK         0.1085 
     77 H77        27.4677   -6.2698   -0.9349 H         1 UNK         0.0836 
     78 H78        28.3129   -5.5181   -2.2519 H         1 UNK         0.0836 
     79 H79        30.6993   -6.2172   -1.2896 H         1 UNK         0.0731 
     80 H80        31.5321   -5.1252   -0.2162 H         1 UNK         0.0731 
     81 H81        31.7684   -2.6699   -0.8170 H         1 UNK         0.1312 
     82 H82        31.5313   -1.7380   -4.9905 H         1 UNK         0.1406 
     83 H83        30.2363   -5.5660   -3.5884 H         1 UNK         0.1631 
     84 H84        30.6417   -5.1784   -5.9904 H         1 UNK         0.0717 
     85 H85        31.1697   -3.6231   -6.5791 H         1 UNK         0.0717 
     86 H86        29.0767   -1.4582   -5.3689 H         1 UNK         0.0934 
     87 H87        29.7687   -1.6390   -6.9653 H         1 UNK         0.0934 
     88 H88        27.4352   -1.7545   -7.9241 H         1 UNK         0.0739 
     89 H89        26.6171   -1.9080   -5.2343 H         1 UNK         0.3093 
     90 H90        23.1628   -1.0745   -5.8354 H         1 UNK         0.0818 
     91 H91        23.6540   -3.4660   -6.3933 H         1 UNK         0.0819 
     92 H92        24.7235   -3.5793   -5.0030 H         1 UNK         0.0819 
     93 H93        22.9990   -3.2811   -4.7775 H         1 UNK         0.0819 
     94 H94        24.8887   -1.6200   -3.5176 H         1 UNK         0.3041 
     95 H95        25.0562    1.7836   -2.5285 H         1 UNK         0.0784 
     96 H96        22.8106    1.1304   -1.6384 H         1 UNK         0.0793 
     97 H97        23.4264   -0.4622   -1.2191 H         1 UNK         0.0793 
     98 H98        24.0531    0.9739   -0.4081 H         1 UNK         0.0793 
     99 H99        25.9215   -0.5840   -1.2183 H         1 UNK         0.3024 
    100 H100       28.9722   -1.0741   -2.9593 H         1 UNK         0.1171 
    101 H101       29.9293   -0.6539   -0.6742 H         1 UNK         0.0786 
    102 H102       29.5389    0.8500   -1.4935 H         1 UNK         0.0786 
    103 H103       28.4810    0.2420   -0.2270 H         1 UNK         0.0786 
    104 H104       28.1078   -2.2817   -0.5990 H         1 UNK         0.2977 
    105 H105       27.1146    0.8696   -5.5638 H         1 UNK         0.3127 
    106 H106       28.4840    2.9106   -6.8630 H         1 UNK         0.0770 
    107 H107       25.9020    3.0077   -5.2145 H         1 UNK         0.0814 
    108 H108       26.8594    4.4213   -5.6407 H         1 UNK         0.0814 
    109 H109       27.5507    3.1819   -4.6121 H         1 UNK         0.0814 
    110 H110       25.4393    1.4313   -7.8972 H         1 UNK         0.2983 
    111 H111       24.5928    3.5567   -9.6521 H         1 UNK         0.0947 
    112 H112       23.0753    1.8365  -10.5766 H         1 UNK         0.0806 
    113 H113       23.0552    1.7572   -8.8215 H         1 UNK         0.0806 
    114 H114       23.9544    0.5587   -9.7517 H         1 UNK         0.0806 
    115 H115       26.9793    0.9986   -9.9222 H         1 UNK         0.3000 
    116 H116       27.4756    1.5648  -12.8116 H         1 UNK         0.0850 
    117 H117       28.8808   -0.4807  -12.6834 H         1 UNK         0.0810 
    118 H118       27.2533   -0.8400  -12.1322 H         1 UNK         0.0810 
    119 H119       28.5576   -0.6361  -10.9627 H         1 UNK         0.0810 
    120 H120       28.3441    2.7375   -9.8244 H         1 UNK         0.3040 
    121 H121       30.0009    3.7746   -8.8201 H         1 UNK         0.0766 
    122 H122       31.1437    4.3560  -11.6036 H         1 UNK         0.0812 
    123 H123       31.5080    5.2281  -10.1226 H         1 UNK         0.0812 
    124 H124       29.8913    5.3042  -10.8018 H         1 UNK         0.0812 
    125 H125       30.2286    0.9685   -8.9828 H         1 UNK         0.3205 
    126 H126       33.1110    0.3741   -9.4525 H         1 UNK         0.0754 
    127 H127       32.2947   -2.0016   -9.3712 H         1 UNK         0.0769 
    128 H128       31.4794   -1.0680  -10.6155 H         1 UNK         0.0769 
    129 H129       30.6522   -1.4292   -9.1063 H         1 UNK         0.0769 
    130 H130       34.3765   -0.5904   -7.8962 H         1 UNK         0.2981 
    131 H131       33.6624   -1.7984   -5.5931 H         1 UNK         0.0541 
    132 H132       37.2692   -2.3002   -5.1182 H         1 UNK         0.3459 
    133 H133       35.8900   -1.9566   -4.0982 H         1 UNK         0.3459 
    134 H134       33.2165    0.7403   -4.8120 H         1 UNK         0.0612 
    135 H135       34.9378    0.8537   -4.7585 H         1 UNK         0.0612 
    136 H136       32.2073   -0.4190   -1.5671 H         1 UNK         0.0624 
    137 H137       31.7621    0.0764   -3.1763 H         1 UNK         0.0624 
@<TRIPOS>BOND
     1    1    2 1    
     2    1   72 1    
     3    1   73 1    
     4    1   74 1    
     5    2    3 2    
     6    2    4 am   BACKBONE|DICT|INTERRES
     7    4    5 1    
     8    4   75 1    
     9    5    6 1    
    10    5   35 1    
    11    5   76 1    
    12    6    7 1    
    13    6   77 1    
    14    6   78 1    
    15    7    8 1    
    16    8    9 1    
    17    8   79 1    
    18    8   80 1    
    19    9   10 ar   
    20    9   14 ar   
    21   10   11 ar   
    22   10   81 1    
    23   11   12 ar   
    24   11   71 1    
    25   12   13 ar   
    26   12   82 1    
    27   13   14 ar   
    28   13   15 1    
    29   14   83 1    
    30   15   16 1    
    31   15   84 1    
    32   15   85 1    
    33   16   17 1    
    34   17   18 1    
    35   17   86 1    
    36   17   87 1    
    37   18   19 1    
    38   18   37 1    
    39   18   88 1    
    40   19   20 am   BACKBONE|DICT|INTERRES
    41   19   89 1    
    42   20   21 2    
    43   20   22 1    
    44   22   23 1    
    45   22   24 1    
    46   22   90 1    
    47   23   91 1    
    48   23   92 1    
    49   23   93 1    
    50   24   25 am   BACKBONE|DICT|INTERRES
    51   24   94 1    
    52   25   26 2    
    53   25   27 1    
    54   27   28 1    
    55   27   29 1    
    56   27   95 1    
    57   28   96 1    
    58   28   97 1    
    59   28   98 1    
    60   29   30 am   BACKBONE|DICT|INTERRES
    61   29   99 1    
    62   30   31 2    
    63   30   32 1    
    64   32   33 1    
    65   32   34 1    
    66   32  100 1    
    67   33  101 1    
    68   33  102 1    
    69   33  103 1    
    70   34   35 am   BACKBONE|DICT|INTERRES
    71   34  104 1    
    72   35   36 2    
    73   37   38 2    
    74   37   39 am   BACKBONE|DICT|INTERRES
    75   39   40 1    
    76   39  105 1    
    77   40   41 1    
    78   40   42 1    
    79   40  106 1    
    80   41  107 1    
    81   41  108 1    
    82   41  109 1    
    83   42   43 2    
    84   42   44 am   BACKBONE|DICT|INTERRES
    85   44   45 1    
    86   44  110 1    
    87   45   46 1    
    88   45   47 1    
    89   45  111 1    
    90   46  112 1    
    91   46  113 1    
    92   46  114 1    
    93   47   48 2    
    94   47   49 am   BACKBONE|DICT|INTERRES
    95   49   50 1    
    96   49  115 1    
    97   50   51 1    
    98   50   52 1    
    99   50  116 1    
   100   51  117 1    
   101   51  118 1    
   102   51  119 1    
   103   52   53 2    
   104   52   54 am   BACKBONE|DICT|INTERRES
   105   54   55 1    
   106   54  120 1    
   107   55   56 1    
   108   55   57 1    
   109   55  121 1    
   110   56  122 1    
   111   56  123 1    
   112   56  124 1    
   113   57   58 2    
   114   57   59 am   BACKBONE|DICT|INTERRES
   115   59   60 1    
   116   59  125 1    
   117   60   61 1    
   118   60   62 1    
   119   60  126 1    
   120   61  127 1    
   121   61  128 1    
   122   61  129 1    
   123   62   63 2    
   124   62   64 am   BACKBONE|DICT|INTERRES
   125   64   65 1    
   126   64  130 1    
   127   65   66 1    
   128   65   69 1    
   129   65  131 1    
   130   66   67 am   BACKBONE|DICT|INTERRES
   131   66   68 2    
   132   67  132 1    
   133   67  133 1    
   134   69   70 1    
   135   69  134 1    
   136   69  135 1    
   137   70   71 1    
   138   71  136 1    
   139   71  137 1    
@<TRIPOS>SUBSTRUCTURE
     1 UNK         1 GROUP             0       ****    0 ROOT    
