@<TRIPOS>MOLECULE
3R137
137   139    1
SMALL
USER_CHARGES


@<TRIPOS>ATOM
      1 CA         29.0900   -0.3311   -2.4487 C.3       0 UNK        -0.2020 
      2 C          29.0040   -0.5716   -0.9439 C.2       0 UNK         0.4855 
      3 O          29.2862    0.3416   -0.1716 O.2       0 UNK        -0.5197 
      4 N          28.6223   -1.7673   -0.4712 N.am      1 UNK        -0.4892 
      5 CA         28.2425   -2.9558   -1.2525 C.3       1 UNK         0.0835 
      6 C6         28.3624   -4.2652   -0.4252 C.3       12 UNK        -0.0855 
      7 S7         29.9595   -4.4570    0.4434 S.3       12 UNK        -0.2931 
      8 C8         30.9580   -5.3729   -0.7759 C.3       12 UNK         0.0378 
      9 C9         31.2150   -4.5441   -2.0256 C.ar      12 UNK        -0.0802 
     10 C10        31.9847   -3.3797   -1.9484 C.ar      12 UNK        -0.0944 
     11 C11        32.1865   -2.5725   -3.0716 C.ar      12 UNK        -0.0787 
     12 C12        31.6183   -2.9636   -4.2926 C.ar      12 UNK        -0.0862 
     13 C13        30.8507   -4.1295   -4.3854 C.ar      12 UNK        -0.0733 
     14 C14        30.6580   -4.9201   -3.2503 C.ar      12 UNK        -0.0832 
     15 C15        30.2162   -4.5319   -5.7096 C.3       12 UNK         0.0240 
     16 S16        28.4324   -4.1566   -5.7537 S.3       12 UNK        -0.2522 
     17 C17        28.4106   -2.3415   -5.5772 C.3       12 UNK        -0.0967 
     18 CA         27.5659   -1.6512   -6.6709 C.3       5 UNK         0.0660 
     19 N          26.1374   -1.9276   -6.5282 N.am      5 UNK        -0.4015 
     20 C          25.2852   -2.0198   -7.5571 C.2       4 UNK         0.4946 
     21 O          25.6226   -1.9568   -8.7397 O.2       4 UNK        -0.5353 
     22 CA         23.7942   -2.1894   -7.2142 C.3       4 UNK         0.0277 
     23 CB         23.4488   -3.6771   -7.0388 C.3       4 UNK        -0.1981 
     24 N          23.3737   -1.4476   -6.0219 N.am      4 UNK        -0.4209 
     25 C          23.4619   -0.1177   -5.8746 C.2       3 UNK         0.4942 
     26 O          23.9089    0.6424   -6.7312 O.2       3 UNK        -0.5208 
     27 CA         23.0221    0.4655   -4.5234 C.3       3 UNK         0.0250 
     28 CB         21.5153    0.7681   -4.5378 C.3       3 UNK        -0.1990 
     29 N          23.3435   -0.3705   -3.3611 N.am      3 UNK        -0.4232 
     30 C          24.5560   -0.8447   -3.0379 C.2       2 UNK         0.4993 
     31 O          25.5615   -0.6928   -3.7400 O.2       2 UNK        -0.5286 
     32 CA         24.6315   -1.5940   -1.6939 C.3       2 UNK         0.0209 
     33 CB         23.7085   -2.8332   -1.6719 C.3       2 UNK        -0.1931 
     34 N          26.0020   -1.9440   -1.2972 N.am      2 UNK        -0.4546 
     35 C          26.8248   -2.8466   -1.8540 C.2       1 UNK         0.5154 
     36 O          26.5137   -3.5826   -2.7897 O.2       1 UNK        -0.5181 
     37 C          27.8218   -0.1355   -6.6580 C.2       5 UNK         0.5014 
     38 O          28.6182    0.3407   -7.4692 O.2       5 UNK        -0.5248 
     39 N          27.1759    0.5880   -5.7301 N.am      6 UNK        -0.4434 
     40 CA         27.4167    2.0097   -5.4751 C.3       6 UNK         0.0363 
     41 CB         26.7145    2.4366   -4.1769 C.3       6 UNK        -0.1936 
     42 C          27.0161    2.9310   -6.6373 C.2       6 UNK         0.5081 
     43 O          27.7868    3.8291   -6.9748 O.2       6 UNK        -0.5248 
     44 N          25.8444    2.6948   -7.2466 N.am      7 UNK        -0.4718 
     45 CA         25.3473    3.4866   -8.3797 C.3       7 UNK         0.0273 
     46 CB         23.8437    3.2368   -8.5756 C.3       7 UNK        -0.1935 
     47 C          26.1139    3.2019   -9.6811 C.2       7 UNK         0.5018 
     48 O          26.2431    4.0965  -10.5173 O.2       7 UNK        -0.5186 
     49 N          26.6235    1.9706   -9.8167 N.am      8 UNK        -0.4240 
     50 CA         27.4912    1.5459  -10.9155 C.3       8 UNK         0.0235 
     51 CB         27.4497    0.0116  -11.0128 C.3       8 UNK        -0.2000 
     52 C          28.9448    2.0257  -10.7508 C.2       8 UNK         0.4941 
     53 O          29.6808    2.0336  -11.7380 O.2       8 UNK        -0.5273 
     54 N          29.3357    2.3739   -9.5131 N.am      9 UNK        -0.4262 
     55 CA         30.6995    2.6515   -9.0465 C.3       9 UNK         0.0264 
     56 CB         31.2482    3.9520   -9.6696 C.3       9 UNK        -0.1955 
     57 C          31.6256    1.4370   -9.2547 C.2       9 UNK         0.5031 
     58 O          32.7666    1.5935   -9.6941 O.2       9 UNK        -0.5390 
     59 N          31.1001    0.2402   -8.9524 N.am      10 UNK        -0.4204 
     60 CA         31.6955   -1.0613   -9.2768 C.3       10 UNK         0.0237 
     61 CB         30.7057   -2.1711   -8.8933 C.3       10 UNK        -0.1985 
     62 C          33.0763   -1.3224   -8.6489 C.2       10 UNK         0.4970 
     63 O          33.8805   -2.0372   -9.2483 O.2       10 UNK        -0.4914 
     64 N          33.3239   -0.7338   -7.4748 N.am      11 UNK        -0.4285 
     65 CA         34.6142   -0.7399   -6.7694 C.3       11 UNK         0.1007 
     66 C          35.4240    0.5801   -6.9398 C.2       11 UNK         0.5703 
     67 N          35.0212    1.5109   -7.7983 N.am      11 UNK        -0.7361 
     68 O          36.4578    0.7578   -6.2995 O.2       11 UNK        -0.4986 
     69 C69        34.4523   -1.1746   -5.2871 C.3       12 UNK        -0.0947 
     70 S70        33.1976   -0.2248   -4.3605 S.3       12 UNK        -0.2240 
     71 C71        32.9970   -1.2851   -2.8872 C.3       12 UNK         0.0194 
     72 H72        29.7379   -1.0608   -2.9308 H         1 UNK         0.0906 
     73 H73        28.1024   -0.3751   -2.9036 H         1 UNK         0.0906 
     74 H74        29.5035    0.6561   -2.6543 H         1 UNK         0.0906 
     75 H75        28.6194   -1.9048    0.5300 H         1 UNK         0.3140 
     76 H76        28.9234   -3.0380   -2.0991 H         1 UNK         0.1085 
     77 H77        27.5783   -4.3057    0.3337 H         1 UNK         0.0836 
     78 H78        28.2022   -5.1354   -1.0652 H         1 UNK         0.0836 
     79 H79        30.4603   -6.3129   -1.0197 H         1 UNK         0.0731 
     80 H80        31.9135   -5.6398   -0.3223 H         1 UNK         0.0731 
     81 H81        32.4050   -3.0860   -0.9957 H         1 UNK         0.1312 
     82 H82        31.7539   -2.3610   -5.1782 H         1 UNK         0.1406 
     83 H83        30.0527   -5.8142   -3.3195 H         1 UNK         0.1631 
     84 H84        30.3516   -5.6033   -5.8643 H         1 UNK         0.0717 
     85 H85        30.7178   -4.0436   -6.5447 H         1 UNK         0.0717 
     86 H86        28.0272   -2.1029   -4.5852 H         1 UNK         0.0934 
     87 H87        29.4339   -1.9677   -5.6045 H         1 UNK         0.0934 
     88 H88        27.9082   -2.0233   -7.6390 H         1 UNK         0.0739 
     89 H89        25.7757   -1.9609   -5.5832 H         1 UNK         0.3093 
     90 H90        23.2207   -1.8012   -8.0586 H         1 UNK         0.0818 
     91 H91        23.7331   -4.2496   -7.9230 H         1 UNK         0.0819 
     92 H92        23.9694   -4.1157   -6.1862 H         1 UNK         0.0819 
     93 H93        22.3785   -3.8228   -6.8919 H         1 UNK         0.0819 
     94 H94        23.0006   -1.9874   -5.2549 H         1 UNK         0.3041 
     95 H95        23.5487    1.4115   -4.3942 H         1 UNK         0.0784 
     96 H96        21.2533    1.4047   -5.3845 H         1 UNK         0.0793 
     97 H97        20.9197   -0.1422   -4.6180 H         1 UNK         0.0793 
     98 H98        21.2063    1.2941   -3.6343 H         1 UNK         0.0793 
     99 H99        22.5798   -0.5459   -2.7241 H         1 UNK         0.3024 
    100 H100       24.2758   -0.8975   -0.9326 H         1 UNK         0.1171 
    101 H101       23.8201   -3.3932   -0.7433 H         1 UNK         0.0786 
    102 H102       22.6582   -2.5501   -1.7464 H         1 UNK         0.0786 
    103 H103       23.9166   -3.5137   -2.4983 H         1 UNK         0.0786 
    104 H104       26.3897   -1.3857   -0.5491 H         1 UNK         0.2977 
    105 H105       26.5414    0.1168   -5.0875 H         1 UNK         0.3127 
    106 H106       28.4918    2.1302   -5.3236 H         1 UNK         0.0770 
    107 H107       25.6329    2.3383   -4.2530 H         1 UNK         0.0814 
    108 H108       26.9301    3.4800   -3.9428 H         1 UNK         0.0814 
    109 H109       27.0454    1.8403   -3.3271 H         1 UNK         0.0814 
    110 H110       25.2544    1.9248   -6.9349 H         1 UNK         0.2983 
    111 H111       25.4853    4.5440   -8.1420 H         1 UNK         0.0947 
    112 H112       23.4401    3.8849   -9.3546 H         1 UNK         0.0806 
    113 H113       23.2840    3.4388   -7.6622 H         1 UNK         0.0806 
    114 H114       23.6402    2.2073   -8.8729 H         1 UNK         0.0806 
    115 H115       26.4573    1.3017   -9.0779 H         1 UNK         0.3000 
    116 H116       27.1079    1.9622  -11.8498 H         1 UNK         0.0850 
    117 H117       28.0681   -0.3461  -11.8372 H         1 UNK         0.0810 
    118 H118       26.4358   -0.3486  -11.1885 H         1 UNK         0.0810 
    119 H119       27.8169   -0.4615  -10.1010 H         1 UNK         0.0810 
    120 H120       28.6455    2.3022   -8.7764 H         1 UNK         0.3040 
    121 H121       30.6286    2.8033   -7.9683 H         1 UNK         0.0766 
    122 H122       31.3979    3.8559  -10.7454 H         1 UNK         0.0812 
    123 H123       32.2108    4.2177   -9.2311 H         1 UNK         0.0812 
    124 H124       30.5713    4.7888   -9.4977 H         1 UNK         0.0812 
    125 H125       30.1688    0.2284   -8.5399 H         1 UNK         0.3205 
    126 H126       31.8311   -1.0889  -10.3599 H         1 UNK         0.0754 
    127 H127       31.1188   -3.1597   -9.0991 H         1 UNK         0.0769 
    128 H128       29.7765   -2.0856   -9.4570 H         1 UNK         0.0769 
    129 H129       30.4593   -2.1294   -7.8335 H         1 UNK         0.0769 
    130 H130       32.6100   -0.1497   -7.0656 H         1 UNK         0.2981 
    131 H131       35.2557   -1.4933   -7.2292 H         1 UNK         0.0541 
    132 H132       34.2073    1.3761   -8.3896 H         1 UNK         0.3459 
    133 H133       35.5693    2.3504   -7.8950 H         1 UNK         0.3459 
    134 H134       35.4019   -1.1151   -4.7526 H         1 UNK         0.0612 
    135 H135       34.1760   -2.2290   -5.2614 H         1 UNK         0.0612 
    136 H136       32.5099   -0.6850   -2.1172 H         1 UNK         0.0624 
    137 H137       33.9858   -1.5364   -2.5007 H         1 UNK         0.0624 
@<TRIPOS>BOND
     1    1    2 1    
     2    1   72 1    
     3    1   73 1    
     4    1   74 1    
     5    2    3 2    
     6    2    4 am   BACKBONE|DICT|INTERRES
     7    4    5 1    
     8    4   75 1    
     9    5    6 1    
    10    5   35 1    
    11    5   76 1    
    12    6    7 1    
    13    6   77 1    
    14    6   78 1    
    15    7    8 1    
    16    8    9 1    
    17    8   79 1    
    18    8   80 1    
    19    9   10 ar   
    20    9   14 ar   
    21   10   11 ar   
    22   10   81 1    
    23   11   12 ar   
    24   11   71 1    
    25   12   13 ar   
    26   12   82 1    
    27   13   14 ar   
    28   13   15 1    
    29   14   83 1    
    30   15   16 1    
    31   15   84 1    
    32   15   85 1    
    33   16   17 1    
    34   17   18 1    
    35   17   86 1    
    36   17   87 1    
    37   18   19 1    
    38   18   37 1    
    39   18   88 1    
    40   19   20 am   BACKBONE|DICT|INTERRES
    41   19   89 1    
    42   20   21 2    
    43   20   22 1    
    44   22   23 1    
    45   22   24 1    
    46   22   90 1    
    47   23   91 1    
    48   23   92 1    
    49   23   93 1    
    50   24   25 am   BACKBONE|DICT|INTERRES
    51   24   94 1    
    52   25   26 2    
    53   25   27 1    
    54   27   28 1    
    55   27   29 1    
    56   27   95 1    
    57   28   96 1    
    58   28   97 1    
    59   28   98 1    
    60   29   30 am   BACKBONE|DICT|INTERRES
    61   29   99 1    
    62   30   31 2    
    63   30   32 1    
    64   32   33 1    
    65   32   34 1    
    66   32  100 1    
    67   33  101 1    
    68   33  102 1    
    69   33  103 1    
    70   34   35 am   BACKBONE|DICT|INTERRES
    71   34  104 1    
    72   35   36 2    
    73   37   38 2    
    74   37   39 am   BACKBONE|DICT|INTERRES
    75   39   40 1    
    76   39  105 1    
    77   40   41 1    
    78   40   42 1    
    79   40  106 1    
    80   41  107 1    
    81   41  108 1    
    82   41  109 1    
    83   42   43 2    
    84   42   44 am   BACKBONE|DICT|INTERRES
    85   44   45 1    
    86   44  110 1    
    87   45   46 1    
    88   45   47 1    
    89   45  111 1    
    90   46  112 1    
    91   46  113 1    
    92   46  114 1    
    93   47   48 2    
    94   47   49 am   BACKBONE|DICT|INTERRES
    95   49   50 1    
    96   49  115 1    
    97   50   51 1    
    98   50   52 1    
    99   50  116 1    
   100   51  117 1    
   101   51  118 1    
   102   51  119 1    
   103   52   53 2    
   104   52   54 am   BACKBONE|DICT|INTERRES
   105   54   55 1    
   106   54  120 1    
   107   55   56 1    
   108   55   57 1    
   109   55  121 1    
   110   56  122 1    
   111   56  123 1    
   112   56  124 1    
   113   57   58 2    
   114   57   59 am   BACKBONE|DICT|INTERRES
   115   59   60 1    
   116   59  125 1    
   117   60   61 1    
   118   60   62 1    
   119   60  126 1    
   120   61  127 1    
   121   61  128 1    
   122   61  129 1    
   123   62   63 2    
   124   62   64 am   BACKBONE|DICT|INTERRES
   125   64   65 1    
   126   64  130 1    
   127   65   66 1    
   128   65   69 1    
   129   65  131 1    
   130   66   67 am   BACKBONE|DICT|INTERRES
   131   66   68 2    
   132   67  132 1    
   133   67  133 1    
   134   69   70 1    
   135   69  134 1    
   136   69  135 1    
   137   70   71 1    
   138   71  136 1    
   139   71  137 1    
@<TRIPOS>SUBSTRUCTURE
     1 UNK         1 GROUP             0       ****    0 ROOT    
