@<TRIPOS>MOLECULE
3R137
137   139    1
SMALL
USER_CHARGES


@<TRIPOS>ATOM
      1 CA         26.7805   -5.9451   -5.0783 C.3       0 UNK        -0.2020 
      2 C          26.7140   -5.7045   -3.5786 C.2       0 UNK         0.4855 
      3 O          25.8541   -6.2736   -2.9059 O.2       0 UNK        -0.5197 
      4 N          27.6111   -4.8659   -3.0434 N.am      1 UNK        -0.4892 
      5 CA         27.8022   -4.6082   -1.6067 C.3       1 UNK         0.0835 
      6 C6         29.2360   -4.0990   -1.2938 C.3       12 UNK        -0.0855 
      7 S7         30.5514   -5.1455   -2.0163 S.3       12 UNK        -0.2931 
      8 C8         31.8869   -3.9413   -2.3320 C.3       12 UNK         0.0378 
      9 C9         31.4475   -2.8097   -3.2521 C.ar      12 UNK        -0.0802 
     10 C10        31.3284   -1.5076   -2.7549 C.ar      12 UNK        -0.0944 
     11 C11        30.8790   -0.4708   -3.5771 C.ar      12 UNK        -0.0787 
     12 C12        30.5530   -0.7445   -4.9085 C.ar      12 UNK        -0.0862 
     13 C13        30.6816   -2.0387   -5.4205 C.ar      12 UNK        -0.0733 
     14 C14        31.1379   -3.0667   -4.5910 C.ar      12 UNK        -0.0832 
     15 C15        30.3059   -2.3237   -6.8660 C.3       12 UNK         0.0240 
     16 S16        28.7515   -3.2709   -7.0171 S.3       12 UNK        -0.2522 
     17 C17        27.5659   -2.3263   -5.9942 C.3       12 UNK        -0.0967 
     18 CA         26.7058   -1.3150   -6.7883 C.3       5 UNK         0.0660 
     19 N          25.5047   -0.9598   -6.0294 N.am      5 UNK        -0.4015 
     20 C          24.5467   -0.1016   -6.4045 C.2       4 UNK         0.4946 
     21 O          24.5026    0.4408   -7.5093 O.2       4 UNK        -0.5353 
     22 CA         23.4910    0.2574   -5.3436 C.3       4 UNK         0.0277 
     23 CB         22.2070   -0.5558   -5.5708 C.3       4 UNK        -0.1981 
     24 N          23.9291    0.0845   -3.9506 N.am      4 UNK        -0.4209 
     25 C          24.9905    0.6553   -3.3641 C.2       3 UNK         0.4942 
     26 O          25.8107    1.3465   -3.9686 O.2       3 UNK        -0.5208 
     27 CA         25.1933    0.4031   -1.8587 C.3       3 UNK         0.0250 
     28 CB         24.2678    1.3100   -1.0252 C.3       3 UNK        -0.1990 
     29 N          25.0929   -0.9998   -1.4248 N.am      3 UNK        -0.4232 
     30 C          24.0462   -1.8369   -1.4533 C.2       2 UNK         0.4993 
     31 O          22.9558   -1.5469   -1.9503 O.2       2 UNK        -0.5286 
     32 CA         24.2556   -3.2306   -0.8205 C.3       2 UNK         0.0209 
     33 CB         23.0308   -4.1480   -0.9999 C.3       2 UNK        -0.1931 
     34 N          25.4421   -3.9380   -1.3171 N.am      2 UNK        -0.4546 
     35 C          26.7187   -3.6734   -1.0122 C.2       1 UNK         0.5154 
     36 O          27.0447   -2.7198   -0.3015 O.2       1 UNK        -0.5181 
     37 C          27.5340   -0.0825   -7.2143 C.2       5 UNK         0.5014 
     38 O          28.0951   -0.0990   -8.3085 O.2       5 UNK        -0.5248 
     39 N          27.5512    0.9813   -6.3922 N.am      6 UNK        -0.4434 
     40 CA         28.2585    2.2400   -6.6614 C.3       6 UNK         0.0363 
     41 CB         28.1234    3.1673   -5.4438 C.3       6 UNK        -0.1936 
     42 C          27.8033    2.9726   -7.9397 C.2       6 UNK         0.5081 
     43 O          28.5685    3.7737   -8.4770 O.2       6 UNK        -0.5248 
     44 N          26.5789    2.6945   -8.4106 N.am      7 UNK        -0.4718 
     45 CA         26.0546    3.1999   -9.6804 C.3       7 UNK         0.0273 
     46 CB         24.5214    3.2739   -9.5914 C.3       7 UNK        -0.1935 
     47 C          26.4812    2.3421  -10.8871 C.2       7 UNK         0.5018 
     48 O          26.3579    2.8135  -12.0186 O.2       7 UNK        -0.5186 
     49 N          26.9446    1.1077  -10.6446 N.am      8 UNK        -0.4240 
     50 CA         27.3185    0.1367  -11.6731 C.3       8 UNK         0.0235 
     51 CB         26.7445   -1.2413  -11.3006 C.3       8 UNK        -0.2000 
     52 C          28.8396    0.0465  -11.8602 C.2       8 UNK         0.4941 
     53 O          29.2890   -0.0923  -12.9990 O.2       8 UNK        -0.5273 
     54 N          29.6066    0.1138  -10.7648 N.am      9 UNK        -0.4262 
     55 CA         31.0631   -0.0124  -10.7585 C.3       9 UNK         0.0264 
     56 CB         31.4468   -1.5027  -10.6845 C.3       9 UNK        -0.1955 
     57 C          31.6568    0.7680   -9.5804 C.2       9 UNK         0.5031 
     58 O          30.9409    1.0941   -8.6327 O.2       9 UNK        -0.5390 
     59 N          32.9653    1.0422   -9.6537 N.am      10 UNK        -0.4204 
     60 CA         33.7323    1.6889   -8.5872 C.3       10 UNK         0.0237 
     61 CB         35.1138    2.0936   -9.1276 C.3       10 UNK        -0.1985 
     62 C          33.8791    0.7705   -7.3621 C.2       10 UNK         0.4970 
     63 O          34.0750   -0.4367   -7.5244 O.2       10 UNK        -0.4914 
     64 N          33.7982    1.3680   -6.1695 N.am      11 UNK        -0.4285 
     65 CA         33.9192    0.6791   -4.8780 C.3       11 UNK         0.1007 
     66 C          35.3576    0.1674   -4.5991 C.2       11 UNK         0.5703 
     67 N          35.4921   -0.9403   -3.8823 N.am      11 UNK        -0.7361 
     68 O          36.3481    0.7843   -4.9887 O.2       11 UNK        -0.4986 
     69 C69        33.4098    1.5639   -3.7085 C.3       12 UNK        -0.0947 
     70 S70        31.7033    2.1656   -3.9587 S.3       12 UNK        -0.2240 
     71 C71        30.7339    0.9400   -3.0216 C.3       12 UNK         0.0194 
     72 H72        25.9792   -5.4085   -5.5852 H         1 UNK         0.0906 
     73 H73        27.7337   -5.6237   -5.4961 H         1 UNK         0.0906 
     74 H74        26.6663   -7.0074   -5.2928 H         1 UNK         0.0906 
     75 H75        28.2980   -4.4306   -3.6431 H         1 UNK         0.3140 
     76 H76        27.6860   -5.5617   -1.0862 H         1 UNK         0.1085 
     77 H77        29.3438   -3.0750   -1.6510 H         1 UNK         0.0836 
     78 H78        29.3984   -4.0582   -0.2149 H         1 UNK         0.0836 
     79 H79        32.7332   -4.4614   -2.7827 H         1 UNK         0.0731 
     80 H80        32.2420   -3.5502   -1.3772 H         1 UNK         0.0731 
     81 H81        31.5684   -1.3047   -1.7200 H         1 UNK         0.1312 
     82 H82        30.2053    0.0552   -5.5481 H         1 UNK         0.1406 
     83 H83        31.2241   -4.0727   -4.9795 H         1 UNK         0.1631 
     84 H84        30.2232   -1.3949   -7.4312 H         1 UNK         0.0717 
     85 H85        31.1093   -2.8891   -7.3400 H         1 UNK         0.0717 
     86 H86        26.9097   -3.0728   -5.5468 H         1 UNK         0.0934 
     87 H87        28.0586   -1.8484   -5.1476 H         1 UNK         0.0934 
     88 H88        26.3566   -1.7995   -7.7027 H         1 UNK         0.0739 
     89 H89        25.4367   -1.3390   -5.0973 H         1 UNK         0.3093 
     90 H90        23.2557    1.3152   -5.4766 H         1 UNK         0.0818 
     91 H91        21.4101   -0.2345   -4.8999 H         1 UNK         0.0819 
     92 H92        21.8395   -0.4318   -6.5907 H         1 UNK         0.0819 
     93 H93        22.3712   -1.6220   -5.4091 H         1 UNK         0.0819 
     94 H94        23.3420   -0.4939   -3.3496 H         1 UNK         0.3041 
     95 H95        26.2200    0.6991   -1.6362 H         1 UNK         0.0784 
     96 H96        24.4035    2.3584   -1.2947 H         1 UNK         0.0793 
     97 H97        23.2148    1.0704   -1.1768 H         1 UNK         0.0793 
     98 H98        24.4810    1.2203    0.0401 H         1 UNK         0.0793 
     99 H99        25.9408   -1.3820   -1.0101 H         1 UNK         0.3024 
    100 H100       24.3863   -3.0629    0.2511 H         1 UNK         0.1171 
    101 H101       23.1698   -5.1006   -0.4883 H         1 UNK         0.0786 
    102 H102       22.1313   -3.6902   -0.5856 H         1 UNK         0.0786 
    103 H103       22.8366   -4.3580   -2.0525 H         1 UNK         0.0786 
    104 H104       25.2798   -4.7409   -1.9197 H         1 UNK         0.2977 
    105 H105       27.0069    0.9533   -5.5343 H         1 UNK         0.3127 
    106 H106       29.3153    1.9991   -6.7865 H         1 UNK         0.0770 
    107 H107       27.0857    3.4558   -5.2716 H         1 UNK         0.0814 
    108 H108       28.6991    4.0830   -5.5851 H         1 UNK         0.0814 
    109 H109       28.4929    2.6913   -4.5365 H         1 UNK         0.0814 
    110 H110       26.0048    2.0172   -7.9206 H         1 UNK         0.2983 
    111 H111       26.4319    4.2112   -9.8490 H         1 UNK         0.0947 
    112 H112       24.0977    3.6995  -10.5021 H         1 UNK         0.0806 
    113 H113       24.2010    3.9032   -8.7610 H         1 UNK         0.0806 
    114 H114       24.0764    2.2873   -9.4565 H         1 UNK         0.0806 
    115 H115       27.0952    0.8186   -9.6828 H         1 UNK         0.3000 
    116 H116       26.8849    0.4265  -12.6328 H         1 UNK         0.0850 
    117 H117       26.9762   -1.9798  -12.0692 H         1 UNK         0.0810 
    118 H118       25.6595   -1.2048  -11.2022 H         1 UNK         0.0810 
    119 H119       27.1534   -1.6124  -10.3599 H         1 UNK         0.0810 
    120 H120       29.1808    0.2322   -9.8457 H         1 UNK         0.3040 
    121 H121       31.4669    0.4208  -11.6763 H         1 UNK         0.0766 
    122 H122       31.0263   -1.9795   -9.7988 H         1 UNK         0.0812 
    123 H123       32.5286   -1.6350  -10.6447 H         1 UNK         0.0812 
    124 H124       31.0877   -2.0480  -11.5575 H         1 UNK         0.0812 
    125 H125       33.4907    0.7060  -10.4475 H         1 UNK         0.3205 
    126 H126       33.1973    2.5937   -8.2896 H         1 UNK         0.0754 
    127 H127       35.0262    2.7783   -9.9714 H         1 UNK         0.0769 
    128 H128       35.6892    1.2265   -9.4552 H         1 UNK         0.0769 
    129 H129       35.6998    2.6007   -8.3597 H         1 UNK         0.0769 
    130 H130       33.6534    2.3650   -6.1222 H         1 UNK         0.2981 
    131 H131       33.2813   -0.2032   -4.9364 H         1 UNK         0.0541 
    132 H132       34.6857   -1.4467   -3.5519 H         1 UNK         0.3459 
    133 H133       36.4180   -1.2814   -3.6766 H         1 UNK         0.3459 
    134 H134       34.0547    2.4357   -3.5845 H         1 UNK         0.0612 
    135 H135       33.4557    1.0171   -2.7648 H         1 UNK         0.0612 
    136 H136       31.0338    0.9816   -1.9735 H         1 UNK         0.0624 
    137 H137       29.6812    1.2220   -3.0511 H         1 UNK         0.0624 
@<TRIPOS>BOND
     1    1    2 1    
     2    1   72 1    
     3    1   73 1    
     4    1   74 1    
     5    2    3 2    
     6    2    4 am   BACKBONE|DICT|INTERRES
     7    4    5 1    
     8    4   75 1    
     9    5    6 1    
    10    5   35 1    
    11    5   76 1    
    12    6    7 1    
    13    6   77 1    
    14    6   78 1    
    15    7    8 1    
    16    8    9 1    
    17    8   79 1    
    18    8   80 1    
    19    9   10 ar   
    20    9   14 ar   
    21   10   11 ar   
    22   10   81 1    
    23   11   12 ar   
    24   11   71 1    
    25   12   13 ar   
    26   12   82 1    
    27   13   14 ar   
    28   13   15 1    
    29   14   83 1    
    30   15   16 1    
    31   15   84 1    
    32   15   85 1    
    33   16   17 1    
    34   17   18 1    
    35   17   86 1    
    36   17   87 1    
    37   18   19 1    
    38   18   37 1    
    39   18   88 1    
    40   19   20 am   BACKBONE|DICT|INTERRES
    41   19   89 1    
    42   20   21 2    
    43   20   22 1    
    44   22   23 1    
    45   22   24 1    
    46   22   90 1    
    47   23   91 1    
    48   23   92 1    
    49   23   93 1    
    50   24   25 am   BACKBONE|DICT|INTERRES
    51   24   94 1    
    52   25   26 2    
    53   25   27 1    
    54   27   28 1    
    55   27   29 1    
    56   27   95 1    
    57   28   96 1    
    58   28   97 1    
    59   28   98 1    
    60   29   30 am   BACKBONE|DICT|INTERRES
    61   29   99 1    
    62   30   31 2    
    63   30   32 1    
    64   32   33 1    
    65   32   34 1    
    66   32  100 1    
    67   33  101 1    
    68   33  102 1    
    69   33  103 1    
    70   34   35 am   BACKBONE|DICT|INTERRES
    71   34  104 1    
    72   35   36 2    
    73   37   38 2    
    74   37   39 am   BACKBONE|DICT|INTERRES
    75   39   40 1    
    76   39  105 1    
    77   40   41 1    
    78   40   42 1    
    79   40  106 1    
    80   41  107 1    
    81   41  108 1    
    82   41  109 1    
    83   42   43 2    
    84   42   44 am   BACKBONE|DICT|INTERRES
    85   44   45 1    
    86   44  110 1    
    87   45   46 1    
    88   45   47 1    
    89   45  111 1    
    90   46  112 1    
    91   46  113 1    
    92   46  114 1    
    93   47   48 2    
    94   47   49 am   BACKBONE|DICT|INTERRES
    95   49   50 1    
    96   49  115 1    
    97   50   51 1    
    98   50   52 1    
    99   50  116 1    
   100   51  117 1    
   101   51  118 1    
   102   51  119 1    
   103   52   53 2    
   104   52   54 am   BACKBONE|DICT|INTERRES
   105   54   55 1    
   106   54  120 1    
   107   55   56 1    
   108   55   57 1    
   109   55  121 1    
   110   56  122 1    
   111   56  123 1    
   112   56  124 1    
   113   57   58 2    
   114   57   59 am   BACKBONE|DICT|INTERRES
   115   59   60 1    
   116   59  125 1    
   117   60   61 1    
   118   60   62 1    
   119   60  126 1    
   120   61  127 1    
   121   61  128 1    
   122   61  129 1    
   123   62   63 2    
   124   62   64 am   BACKBONE|DICT|INTERRES
   125   64   65 1    
   126   64  130 1    
   127   65   66 1    
   128   65   69 1    
   129   65  131 1    
   130   66   67 am   BACKBONE|DICT|INTERRES
   131   66   68 2    
   132   67  132 1    
   133   67  133 1    
   134   69   70 1    
   135   69  134 1    
   136   69  135 1    
   137   70   71 1    
   138   71  136 1    
   139   71  137 1    
@<TRIPOS>SUBSTRUCTURE
     1 UNK         1 GROUP             0       ****    0 ROOT    
