@<TRIPOS>MOLECULE
3R137
137   139    1
SMALL
USER_CHARGES


@<TRIPOS>ATOM
      1 CA         24.6146   -3.9991   -3.5277 C.3       0 UNK        -0.2020 
      2 C          25.7165   -3.1596   -2.9003 C.2       0 UNK         0.4855 
      3 O          26.2250   -2.2411   -3.5473 O.2       0 UNK        -0.5197 
      4 N          26.0608   -3.4655   -1.6401 N.am      1 UNK        -0.4892 
      5 CA         27.1638   -2.8886   -0.8493 C.3       1 UNK         0.0835 
      6 C6         28.5601   -3.2771   -1.3957 C.3       12 UNK        -0.0855 
      7 S7         28.8241   -5.0823   -1.5135 S.3       12 UNK        -0.2931 
      8 C8         30.5969   -5.1523   -1.9412 C.3       12 UNK         0.0378 
      9 C9         30.9073   -4.2577   -3.1309 C.ar      12 UNK        -0.0802 
     10 C10        31.4574   -2.9893   -2.9268 C.ar      12 UNK        -0.0944 
     11 C11        31.6306   -2.1119   -3.9980 C.ar      12 UNK        -0.0787 
     12 C12        31.2676   -2.5203   -5.2860 C.ar      12 UNK        -0.0862 
     13 C13        30.7310   -3.7948   -5.5071 C.ar      12 UNK        -0.0733 
     14 C14        30.5709   -4.6655   -4.4239 C.ar      12 UNK        -0.0832 
     15 C15        30.3317   -4.2160   -6.9192 C.3       12 UNK         0.0240 
     16 S16        28.7279   -5.0906   -7.0371 S.3       12 UNK        -0.2522 
     17 C17        27.5485   -3.9849   -6.1868 C.3       12 UNK        -0.0967 
     18 CA         27.0681   -2.8009   -7.0680 C.3       5 UNK         0.0660 
     19 N          25.6632   -2.4429   -6.8314 N.am      5 UNK        -0.4015 
     20 C          24.9659   -1.5989   -7.6069 C.2       4 UNK         0.4946 
     21 O          25.4332   -1.0292   -8.5914 O.2       4 UNK        -0.5353 
     22 CA         23.4998   -1.3259   -7.2341 C.3       4 UNK         0.0277 
     23 CB         22.6008   -2.4712   -7.7283 C.3       4 UNK        -0.1981 
     24 N          23.2278   -1.0700   -5.8163 N.am      4 UNK        -0.4209 
     25 C          23.8632   -0.1977   -5.0209 C.2       3 UNK         0.4942 
     26 O          24.8929    0.4000   -5.3338 O.2       3 UNK        -0.5208 
     27 CA         23.2324    0.0818   -3.6494 C.3       3 UNK         0.0250 
     28 CB         22.0869   -0.8761   -3.2488 C.3       3 UNK        -0.1990 
     29 N          24.2789    0.0667   -2.6341 N.am      3 UNK        -0.4232 
     30 C          24.2617    0.7759   -1.4982 C.2       2 UNK         0.4993 
     31 O          23.3593    1.5588   -1.1952 O.2       2 UNK        -0.5286 
     32 CA         25.4252    0.5334   -0.5239 C.3       2 UNK         0.0209 
     33 CB         25.1045    0.9603    0.9218 C.3       2 UNK        -0.1931 
     34 N          25.7858   -0.8839   -0.5474 N.am      2 UNK        -0.4546 
     35 C          27.0306   -1.3612   -0.6414 C.2       1 UNK         0.5154 
     36 O          28.0341   -0.6480   -0.5839 O.2       1 UNK        -0.5181 
     37 C          27.9796   -1.5743   -6.9029 C.2       5 UNK         0.5014 
     38 O          28.7242   -1.2354   -7.8257 O.2       5 UNK        -0.5248 
     39 N          27.8665   -0.9132   -5.7421 N.am      6 UNK        -0.4434 
     40 CA         28.6052    0.3030   -5.4100 C.3       6 UNK         0.0363 
     41 CB         28.3124    0.7017   -3.9559 C.3       6 UNK        -0.1936 
     42 C          28.3149    1.4607   -6.3778 C.2       6 UNK         0.5081 
     43 O          29.2517    2.1354   -6.8025 O.2       6 UNK        -0.5248 
     44 N          27.0379    1.6419   -6.7395 N.am      7 UNK        -0.4718 
     45 CA         26.5793    2.6490   -7.6962 C.3       7 UNK         0.0273 
     46 CB         25.0432    2.7069   -7.6870 C.3       7 UNK        -0.1935 
     47 C          27.1059    2.4202   -9.1229 C.2       7 UNK         0.5018 
     48 O          27.5539    3.3787   -9.7534 O.2       7 UNK        -0.5186 
     49 N          27.0372    1.1731   -9.6114 N.am      8 UNK        -0.4240 
     50 CA         27.4557    0.8076  -10.9659 C.3       8 UNK         0.0235 
     51 CB         26.8566   -0.5533  -11.3563 C.3       8 UNK        -0.2000 
     52 C          28.9800    0.7891  -11.1399 C.2       8 UNK         0.4941 
     53 O          29.4775    1.3391  -12.1236 O.2       8 UNK        -0.5273 
     54 N          29.6928    0.1386  -10.2097 N.am      9 UNK        -0.4262 
     55 CA         31.1373   -0.0801  -10.3179 C.3       9 UNK         0.0264 
     56 CB         31.5146   -1.3548   -9.5448 C.3       9 UNK        -0.1955 
     57 C          31.9814    1.1016   -9.8193 C.2       9 UNK         0.5031 
     58 O          33.1687    1.1540  -10.1456 O.2       9 UNK        -0.5390 
     59 N          31.4040    1.9712   -8.9718 N.am      10 UNK        -0.4204 
     60 CA         32.0778    3.0464   -8.2198 C.3       10 UNK         0.0237 
     61 CB         32.5887    4.1471   -9.1737 C.3       10 UNK        -0.1985 
     62 C          33.1838    2.5282   -7.2712 C.2       10 UNK         0.4970 
     63 O          34.0579    3.2967   -6.8676 O.2       10 UNK        -0.4914 
     64 N          33.1324    1.2255   -6.9603 N.am      11 UNK        -0.4285 
     65 CA         34.1686    0.4316   -6.2891 C.3       11 UNK         0.1007 
     66 C          35.5246    0.3359   -7.0560 C.2       11 UNK         0.5703 
     67 N          35.5615    0.5841   -8.3615 N.am      11 UNK        -0.7361 
     68 O          36.5532   -0.0022   -6.4750 O.2       11 UNK        -0.4986 
     69 C69        34.2959    0.7792   -4.7739 C.3       12 UNK        -0.0947 
     70 S70        33.9876   -0.6849   -3.7339 S.3       12 UNK        -0.2240 
     71 C71        32.1676   -0.7110   -3.7476 C.3       12 UNK         0.0194 
     72 H72        23.9424   -4.4047   -2.7718 H         1 UNK         0.0906 
     73 H73        24.0193   -3.4037   -4.2172 H         1 UNK         0.0906 
     74 H74        25.0472   -4.8322   -4.0804 H         1 UNK         0.0906 
     75 H75        25.5817   -4.2310   -1.1855 H         1 UNK         0.3140 
     76 H76        27.0775   -3.3185    0.1501 H         1 UNK         0.1085 
     77 H77        28.6987   -2.8341   -2.3839 H         1 UNK         0.0836 
     78 H78        29.3481   -2.8704   -0.7589 H         1 UNK         0.0836 
     79 H79        31.1889   -4.8583   -1.0730 H         1 UNK         0.0731 
     80 H80        30.8731   -6.1830   -2.1683 H         1 UNK         0.0731 
     81 H81        31.7124   -2.6669   -1.9264 H         1 UNK         0.1312 
     82 H82        31.3907   -1.8388   -6.1155 H         1 UNK         0.1406 
     83 H83        30.1409   -5.6458   -4.5783 H         1 UNK         0.1631 
     84 H84        31.1092   -4.8709   -7.3140 H         1 UNK         0.0717 
     85 H85        30.3016   -3.3536   -7.5843 H         1 UNK         0.0717 
     86 H86        26.6979   -4.6170   -5.9297 H         1 UNK         0.0934 
     87 H87        27.9554   -3.6595   -5.2270 H         1 UNK         0.0934 
     88 H88        27.1276   -3.1066   -8.1152 H         1 UNK         0.0739 
     89 H89        25.2243   -2.8197   -6.0062 H         1 UNK         0.3093 
     90 H90        23.2062   -0.4207   -7.7696 H         1 UNK         0.0818 
     91 H91        21.5447   -2.2245   -7.6177 H         1 UNK         0.0819 
     92 H92        22.7721   -2.6741   -8.7867 H         1 UNK         0.0819 
     93 H93        22.7885   -3.3978   -7.1845 H         1 UNK         0.0819 
     94 H94        22.3940   -1.5031   -5.4468 H         1 UNK         0.3041 
     95 H95        22.8232    1.0921   -3.7163 H         1 UNK         0.0784 
     96 H96        21.2616   -0.8371   -3.9608 H         1 UNK         0.0793 
     97 H97        22.4233   -1.9099   -3.1738 H         1 UNK         0.0793 
     98 H98        21.6699   -0.6003   -2.2799 H         1 UNK         0.0793 
     99 H99        25.0873   -0.5070   -2.8525 H         1 UNK         0.3024 
    100 H100       26.2572    1.1414   -0.8876 H         1 UNK         0.1171 
    101 H101       24.8716    2.0246    0.9750 H         1 UNK         0.0786 
    102 H102       25.9528    0.7832    1.5832 H         1 UNK         0.0786 
    103 H103       24.2481    0.4159    1.3212 H         1 UNK         0.0786 
    104 H104       25.0184   -1.5386   -0.6155 H         1 UNK         0.2977 
    105 H105       27.2137   -1.2577   -5.0438 H         1 UNK         0.3127 
    106 H106       29.6670    0.0703   -5.4941 H         1 UNK         0.0770 
    107 H107       27.2517    0.9004   -3.7973 H         1 UNK         0.0814 
    108 H108       28.8615    1.6023   -3.6786 H         1 UNK         0.0814 
    109 H109       28.6118   -0.0867   -3.2648 H         1 UNK         0.0814 
    110 H110       26.3222    1.0584   -6.3084 H         1 UNK         0.2983 
    111 H111       26.9567    3.6171   -7.3597 H         1 UNK         0.0947 
    112 H112       24.6753    3.4650   -8.3796 H         1 UNK         0.0806 
    113 H113       24.6629    2.9592   -6.6969 H         1 UNK         0.0806 
    114 H114       24.6025    1.7532   -7.9798 H         1 UNK         0.0806 
    115 H115       26.6215    0.4356   -9.0468 H         1 UNK         0.3000 
    116 H116       27.0549    1.5545  -11.6550 H         1 UNK         0.0850 
    117 H117       27.1467   -0.8333  -12.3699 H         1 UNK         0.0810 
    118 H118       25.7672   -0.5289  -11.3262 H         1 UNK         0.0810 
    119 H119       27.1909   -1.3486  -10.6884 H         1 UNK         0.0810 
    120 H120       29.2175   -0.2954   -9.4196 H         1 UNK         0.3040 
    121 H121       31.3937   -0.2419  -11.3674 H         1 UNK         0.0766 
    122 H122       32.5735   -1.5880   -9.6656 H         1 UNK         0.0812 
    123 H123       30.9508   -2.2169   -9.9018 H         1 UNK         0.0812 
    124 H124       31.3242   -1.2493   -8.4772 H         1 UNK         0.0812 
    125 H125       30.4306    1.8286   -8.7268 H         1 UNK         0.3205 
    126 H126       31.3207    3.4987   -7.5789 H         1 UNK         0.0754 
    127 H127       32.9503    5.0119   -8.6161 H         1 UNK         0.0769 
    128 H128       31.7950    4.4981   -9.8334 H         1 UNK         0.0769 
    129 H129       33.4122    3.7961   -9.7963 H         1 UNK         0.0769 
    130 H130       32.3655    0.6968   -7.3442 H         1 UNK         0.2981 
    131 H131       33.7826   -0.5846   -6.3755 H         1 UNK         0.0541 
    132 H132       34.7245    0.8395   -8.8746 H         1 UNK         0.3459 
    133 H133       36.4401    0.5077   -8.8482 H         1 UNK         0.3459 
    134 H134       33.5923    1.5597   -4.4793 H         1 UNK         0.0612 
    135 H135       35.2795    1.1810   -4.5259 H         1 UNK         0.0612 
    136 H136       31.7986   -0.3307   -2.7938 H         1 UNK         0.0624 
    137 H137       31.7864   -0.0307   -4.5093 H         1 UNK         0.0624 
@<TRIPOS>BOND
     1    1    2 1    
     2    1   72 1    
     3    1   73 1    
     4    1   74 1    
     5    2    3 2    
     6    2    4 am   BACKBONE|DICT|INTERRES
     7    4    5 1    
     8    4   75 1    
     9    5    6 1    
    10    5   35 1    
    11    5   76 1    
    12    6    7 1    
    13    6   77 1    
    14    6   78 1    
    15    7    8 1    
    16    8    9 1    
    17    8   79 1    
    18    8   80 1    
    19    9   10 ar   
    20    9   14 ar   
    21   10   11 ar   
    22   10   81 1    
    23   11   12 ar   
    24   11   71 1    
    25   12   13 ar   
    26   12   82 1    
    27   13   14 ar   
    28   13   15 1    
    29   14   83 1    
    30   15   16 1    
    31   15   84 1    
    32   15   85 1    
    33   16   17 1    
    34   17   18 1    
    35   17   86 1    
    36   17   87 1    
    37   18   19 1    
    38   18   37 1    
    39   18   88 1    
    40   19   20 am   BACKBONE|DICT|INTERRES
    41   19   89 1    
    42   20   21 2    
    43   20   22 1    
    44   22   23 1    
    45   22   24 1    
    46   22   90 1    
    47   23   91 1    
    48   23   92 1    
    49   23   93 1    
    50   24   25 am   BACKBONE|DICT|INTERRES
    51   24   94 1    
    52   25   26 2    
    53   25   27 1    
    54   27   28 1    
    55   27   29 1    
    56   27   95 1    
    57   28   96 1    
    58   28   97 1    
    59   28   98 1    
    60   29   30 am   BACKBONE|DICT|INTERRES
    61   29   99 1    
    62   30   31 2    
    63   30   32 1    
    64   32   33 1    
    65   32   34 1    
    66   32  100 1    
    67   33  101 1    
    68   33  102 1    
    69   33  103 1    
    70   34   35 am   BACKBONE|DICT|INTERRES
    71   34  104 1    
    72   35   36 2    
    73   37   38 2    
    74   37   39 am   BACKBONE|DICT|INTERRES
    75   39   40 1    
    76   39  105 1    
    77   40   41 1    
    78   40   42 1    
    79   40  106 1    
    80   41  107 1    
    81   41  108 1    
    82   41  109 1    
    83   42   43 2    
    84   42   44 am   BACKBONE|DICT|INTERRES
    85   44   45 1    
    86   44  110 1    
    87   45   46 1    
    88   45   47 1    
    89   45  111 1    
    90   46  112 1    
    91   46  113 1    
    92   46  114 1    
    93   47   48 2    
    94   47   49 am   BACKBONE|DICT|INTERRES
    95   49   50 1    
    96   49  115 1    
    97   50   51 1    
    98   50   52 1    
    99   50  116 1    
   100   51  117 1    
   101   51  118 1    
   102   51  119 1    
   103   52   53 2    
   104   52   54 am   BACKBONE|DICT|INTERRES
   105   54   55 1    
   106   54  120 1    
   107   55   56 1    
   108   55   57 1    
   109   55  121 1    
   110   56  122 1    
   111   56  123 1    
   112   56  124 1    
   113   57   58 2    
   114   57   59 am   BACKBONE|DICT|INTERRES
   115   59   60 1    
   116   59  125 1    
   117   60   61 1    
   118   60   62 1    
   119   60  126 1    
   120   61  127 1    
   121   61  128 1    
   122   61  129 1    
   123   62   63 2    
   124   62   64 am   BACKBONE|DICT|INTERRES
   125   64   65 1    
   126   64  130 1    
   127   65   66 1    
   128   65   69 1    
   129   65  131 1    
   130   66   67 am   BACKBONE|DICT|INTERRES
   131   66   68 2    
   132   67  132 1    
   133   67  133 1    
   134   69   70 1    
   135   69  134 1    
   136   69  135 1    
   137   70   71 1    
   138   71  136 1    
   139   71  137 1    
@<TRIPOS>SUBSTRUCTURE
     1 UNK         1 GROUP             0       ****    0 ROOT    
