@<TRIPOS>MOLECULE
3R137
137   139    1
SMALL
USER_CHARGES


@<TRIPOS>ATOM
      1 CA         26.7197   -8.4813   -0.0929 C.3       0 UNK        -0.2020 
      2 C          26.3226   -7.0342    0.1561 C.2       0 UNK         0.4855 
      3 O          25.4764   -6.7693    1.0101 O.2       0 UNK        -0.5197 
      4 N          26.9271   -6.0947   -0.5828 N.am      1 UNK        -0.4892 
      5 CA         26.6546   -4.6530   -0.5035 C.3       1 UNK         0.0835 
      6 C6         27.8058   -3.8199   -1.1217 C.3       12 UNK        -0.0855 
      7 S7         28.2033   -4.2830   -2.8456 S.3       12 UNK        -0.2931 
      8 C8         28.3392   -2.6586   -3.6472 C.3       12 UNK         0.0378 
      9 C9         29.6752   -1.9878   -3.3694 C.ar      12 UNK        -0.0802 
     10 C10        30.7715   -2.2448   -4.1966 C.ar      12 UNK        -0.0944 
     11 C11        31.9845   -1.5773   -4.0025 C.ar      12 UNK        -0.0787 
     12 C12        32.1034   -0.6599   -2.9547 C.ar      12 UNK        -0.0862 
     13 C13        31.0206   -0.4110   -2.1055 C.ar      12 UNK        -0.0733 
     14 C14        29.8104   -1.0809   -2.3160 C.ar      12 UNK        -0.0832 
     15 C15        31.1541    0.5873   -0.9648 C.3       12 UNK         0.0240 
     16 S16        29.9214    1.9213   -1.0791 S.3       12 UNK        -0.2522 
     17 C17        30.4743    2.8310   -2.5643 C.3       12 UNK        -0.0967 
     18 CA         29.8662    2.3298   -3.9089 C.3       5 UNK         0.0660 
     19 N          28.4247    2.0680   -3.7955 N.am      5 UNK        -0.4015 
     20 C          27.6958    1.2790   -4.5934 C.2       4 UNK         0.4946 
     21 O          28.1314    0.7184   -5.6029 O.2       4 UNK        -0.5353 
     22 CA         26.2199    1.1207   -4.2239 C.3       4 UNK         0.0277 
     23 CB         25.3956    2.3205   -4.7255 C.3       4 UNK        -0.1981 
     24 N          25.7211   -0.1112   -4.8286 N.am      4 UNK        -0.4209 
     25 C          24.7522   -0.8823   -4.3231 C.2       3 UNK         0.4942 
     26 O          24.1443   -0.6042   -3.2880 O.2       3 UNK        -0.5208 
     27 CA         24.3835   -2.1675   -5.0911 C.3       3 UNK         0.0250 
     28 CB         25.3143   -2.5026   -6.2751 C.3       3 UNK        -0.1990 
     29 N          24.3445   -3.3073   -4.1713 N.am      3 UNK        -0.4232 
     30 C          23.2409   -3.7676   -3.5665 C.2       2 UNK         0.4993 
     31 O          22.1098   -3.3214   -3.7667 O.2       2 UNK        -0.5286 
     32 CA         23.4083   -4.9444   -2.5878 C.3       2 UNK         0.0209 
     33 CB         23.0291   -6.2685   -3.2720 C.3       2 UNK        -0.1931 
     34 N          24.7518   -5.0755   -2.0143 N.am      2 UNK        -0.4546 
     35 C          25.2745   -4.2641   -1.0823 C.2       1 UNK         0.5154 
     36 O          24.7020   -3.2612   -0.6549 O.2       1 UNK        -0.5181 
     37 C          30.1820    3.3010   -5.0729 C.2       5 UNK         0.5014 
     38 O          30.8335    4.3262   -4.8609 O.2       5 UNK        -0.5248 
     39 N          29.6718    3.0004   -6.2705 N.am      6 UNK        -0.4434 
     40 CA         29.6862    3.8686   -7.4427 C.3       6 UNK         0.0363 
     41 CB         28.5962    4.9549   -7.2957 C.3       6 UNK        -0.1936 
     42 C          29.5143    3.0219   -8.7113 C.2       6 UNK         0.5081 
     43 O          29.7299    1.8061   -8.6807 O.2       6 UNK        -0.5248 
     44 N          29.1163    3.6767   -9.8111 N.am      7 UNK        -0.4718 
     45 CA         28.9051    3.1038  -11.1468 C.3       7 UNK         0.0273 
     46 CB         28.4594    4.2187  -12.1062 C.3       7 UNK        -0.1935 
     47 C          27.9172    1.9237  -11.2047 C.2       7 UNK         0.5018 
     48 O          28.0340    1.0978  -12.1088 O.2       7 UNK        -0.5186 
     49 N          27.0103    1.8306  -10.2206 N.am      8 UNK        -0.4240 
     50 CA         26.0983    0.7023  -10.0047 C.3       8 UNK         0.0235 
     51 CB         25.1861    1.0126   -8.8058 C.3       8 UNK        -0.2000 
     52 C          26.8190   -0.6420   -9.7856 C.2       8 UNK         0.4941 
     53 O          26.3000   -1.6747  -10.2098 O.2       8 UNK        -0.5273 
     54 N          27.9960   -0.6004   -9.1462 N.am      9 UNK        -0.4262 
     55 CA         28.8689   -1.7543   -8.9154 C.3       9 UNK         0.0264 
     56 CB         29.2077   -1.8018   -7.4191 C.3       9 UNK        -0.1955 
     57 C          30.1641   -1.6860   -9.7455 C.2       9 UNK         0.5031 
     58 O          30.9766   -2.6069   -9.6542 O.2       9 UNK        -0.5390 
     59 N          30.3481   -0.5965  -10.5082 N.am      10 UNK        -0.4204 
     60 CA         31.5798   -0.1736  -11.1881 C.3       10 UNK         0.0237 
     61 CB         31.9867   -1.1705  -12.2945 C.3       10 UNK        -0.1985 
     62 C          32.7213    0.1404  -10.1962 C.2       10 UNK         0.4970 
     63 O          33.8891   -0.1011  -10.5069 O.2       10 UNK        -0.4914 
     64 N          32.3559    0.6824   -9.0276 N.am      11 UNK        -0.4285 
     65 CA         33.2547    1.0307   -7.9151 C.3       11 UNK         0.1007 
     66 C          33.5033    2.5618   -7.7889 C.2       11 UNK         0.5703 
     67 N          33.0799    3.3863   -8.7409 N.am      11 UNK        -0.7361 
     68 O          34.1174    3.0124   -6.8252 O.2       11 UNK        -0.4986 
     69 C69        32.7601    0.4006   -6.5838 C.3       12 UNK        -0.0947 
     70 S70        32.8183   -1.4216   -6.6494 S.3       12 UNK        -0.2240 
     71 C71        33.1674   -1.8607   -4.9179 C.3       12 UNK         0.0194 
     72 H72        27.4797   -8.5685   -0.8693 H         1 UNK         0.0906 
     73 H73        27.1163   -8.9239    0.8204 H         1 UNK         0.0906 
     74 H74        25.8504   -9.0608   -0.4028 H         1 UNK         0.0906 
     75 H75        27.6202   -6.3610   -1.2696 H         1 UNK         0.3140 
     76 H76        26.6104   -4.3944    0.5573 H         1 UNK         0.1085 
     77 H77        28.7113   -3.9539   -0.5278 H         1 UNK         0.0836 
     78 H78        27.5733   -2.7556   -1.0583 H         1 UNK         0.0836 
     79 H79        27.5112   -2.0158   -3.3458 H         1 UNK         0.0731 
     80 H80        28.2362   -2.8059   -4.7205 H         1 UNK         0.0731 
     81 H81        30.6779   -2.9542   -5.0066 H         1 UNK         0.1312 
     82 H82        33.0398   -0.1418   -2.7989 H         1 UNK         0.1406 
     83 H83        28.9682   -0.8739   -1.6706 H         1 UNK         0.1631 
     84 H84        32.1540    1.0227   -0.9324 H         1 UNK         0.0717 
     85 H85        31.0162    0.0610   -0.0194 H         1 UNK         0.0717 
     86 H86        30.2060    3.8755   -2.3927 H         1 UNK         0.0934 
     87 H87        31.5647    2.8098   -2.6125 H         1 UNK         0.0934 
     88 H88        30.3503    1.3848   -4.1622 H         1 UNK         0.0739 
     89 H89        27.9734    2.5070   -3.0064 H         1 UNK         0.3093 
     90 H90        26.1462    1.0507   -3.1362 H         1 UNK         0.0818 
     91 H91        25.7415    3.2523   -4.2764 H         1 UNK         0.0819 
     92 H92        25.4657    2.4347   -5.8076 H         1 UNK         0.0819 
     93 H93        24.3417    2.2116   -4.4690 H         1 UNK         0.0819 
     94 H94        26.2408   -0.4089   -5.6447 H         1 UNK         0.3041 
     95 H95        23.3885   -1.9957   -5.5070 H         1 UNK         0.0784 
     96 H96        25.3526   -1.6922   -7.0041 H         1 UNK         0.0793 
     97 H97        26.3300   -2.7143   -5.9491 H         1 UNK         0.0793 
     98 H98        24.9569   -3.3832   -6.8094 H         1 UNK         0.0793 
     99 H99        25.2291   -3.7220   -3.9168 H         1 UNK         0.3024 
    100 H100       22.7089   -4.7735   -1.7659 H         1 UNK         0.1171 
    101 H101       23.7046   -6.5061   -4.0948 H         1 UNK         0.0786 
    102 H102       23.0502   -7.1002   -2.5674 H         1 UNK         0.0786 
    103 H103       22.0195   -6.2211   -3.6830 H         1 UNK         0.0786 
    104 H104       25.2973   -5.8763   -2.2990 H         1 UNK         0.2977 
    105 H105       29.1862    2.1109   -6.3805 H         1 UNK         0.3127 
    106 H106       30.6634    4.3501   -7.5115 H         1 UNK         0.0770 
    107 H107       27.5946    4.5227   -7.3014 H         1 UNK         0.0814 
    108 H108       28.6463    5.6919   -8.0975 H         1 UNK         0.0814 
    109 H109       28.7091    5.5086   -6.3636 H         1 UNK         0.0814 
    110 H110       28.9627    4.6720   -9.7325 H         1 UNK         0.2983 
    111 H111       29.8702    2.7276  -11.4909 H         1 UNK         0.0947 
    112 H112       28.3199    3.8327  -13.1173 H         1 UNK         0.0806 
    113 H113       29.2037    5.0129  -12.1672 H         1 UNK         0.0806 
    114 H114       27.5142    4.6654  -11.7952 H         1 UNK         0.0806 
    115 H115       26.9926    2.5668   -9.5306 H         1 UNK         0.3000 
    116 H116       25.4782    0.6032  -10.8981 H         1 UNK         0.0850 
    117 H117       25.7581    1.1282   -7.8843 H         1 UNK         0.0810 
    118 H118       24.4673    0.2079   -8.6442 H         1 UNK         0.0810 
    119 H119       24.6142    1.9268   -8.9653 H         1 UNK         0.0810 
    120 H120       28.3491    0.2939   -8.8187 H         1 UNK         0.3040 
    121 H121       28.3599   -2.6825   -9.1824 H         1 UNK         0.0766 
    122 H122       29.7963   -0.9365   -7.1104 H         1 UNK         0.0812 
    123 H123       28.3052   -1.8158   -6.8130 H         1 UNK         0.0812 
    124 H124       29.7835   -2.6953   -7.1774 H         1 UNK         0.0812 
    125 H125       29.5907    0.0713  -10.5322 H         1 UNK         0.3205 
    126 H126       31.3430    0.7714  -11.6779 H         1 UNK         0.0754 
    127 H127       32.8055   -0.7733  -12.8956 H         1 UNK         0.0769 
    128 H128       31.1566   -1.3710  -12.9718 H         1 UNK         0.0769 
    129 H129       32.3216   -2.1226  -11.8820 H         1 UNK         0.0769 
    130 H130       31.3749    0.8984   -8.8728 H         1 UNK         0.2981 
    131 H131       34.2438    0.6155   -8.1149 H         1 UNK         0.0541 
    132 H132       33.2719    4.3717   -8.6567 H         1 UNK         0.3459 
    133 H133       32.6190    3.0268   -9.5599 H         1 UNK         0.3459 
    134 H134       31.7381    0.7121   -6.3618 H         1 UNK         0.0612 
    135 H135       33.3748    0.7309   -5.7449 H         1 UNK         0.0612 
    136 H136       33.4021   -2.9247   -4.8691 H         1 UNK         0.0624 
    137 H137       34.0625   -1.3330   -4.5850 H         1 UNK         0.0624 
@<TRIPOS>BOND
     1    1    2 1    
     2    1   72 1    
     3    1   73 1    
     4    1   74 1    
     5    2    3 2    
     6    2    4 am   BACKBONE|DICT|INTERRES
     7    4    5 1    
     8    4   75 1    
     9    5    6 1    
    10    5   35 1    
    11    5   76 1    
    12    6    7 1    
    13    6   77 1    
    14    6   78 1    
    15    7    8 1    
    16    8    9 1    
    17    8   79 1    
    18    8   80 1    
    19    9   10 ar   
    20    9   14 ar   
    21   10   11 ar   
    22   10   81 1    
    23   11   12 ar   
    24   11   71 1    
    25   12   13 ar   
    26   12   82 1    
    27   13   14 ar   
    28   13   15 1    
    29   14   83 1    
    30   15   16 1    
    31   15   84 1    
    32   15   85 1    
    33   16   17 1    
    34   17   18 1    
    35   17   86 1    
    36   17   87 1    
    37   18   19 1    
    38   18   37 1    
    39   18   88 1    
    40   19   20 am   BACKBONE|DICT|INTERRES
    41   19   89 1    
    42   20   21 2    
    43   20   22 1    
    44   22   23 1    
    45   22   24 1    
    46   22   90 1    
    47   23   91 1    
    48   23   92 1    
    49   23   93 1    
    50   24   25 am   BACKBONE|DICT|INTERRES
    51   24   94 1    
    52   25   26 2    
    53   25   27 1    
    54   27   28 1    
    55   27   29 1    
    56   27   95 1    
    57   28   96 1    
    58   28   97 1    
    59   28   98 1    
    60   29   30 am   BACKBONE|DICT|INTERRES
    61   29   99 1    
    62   30   31 2    
    63   30   32 1    
    64   32   33 1    
    65   32   34 1    
    66   32  100 1    
    67   33  101 1    
    68   33  102 1    
    69   33  103 1    
    70   34   35 am   BACKBONE|DICT|INTERRES
    71   34  104 1    
    72   35   36 2    
    73   37   38 2    
    74   37   39 am   BACKBONE|DICT|INTERRES
    75   39   40 1    
    76   39  105 1    
    77   40   41 1    
    78   40   42 1    
    79   40  106 1    
    80   41  107 1    
    81   41  108 1    
    82   41  109 1    
    83   42   43 2    
    84   42   44 am   BACKBONE|DICT|INTERRES
    85   44   45 1    
    86   44  110 1    
    87   45   46 1    
    88   45   47 1    
    89   45  111 1    
    90   46  112 1    
    91   46  113 1    
    92   46  114 1    
    93   47   48 2    
    94   47   49 am   BACKBONE|DICT|INTERRES
    95   49   50 1    
    96   49  115 1    
    97   50   51 1    
    98   50   52 1    
    99   50  116 1    
   100   51  117 1    
   101   51  118 1    
   102   51  119 1    
   103   52   53 2    
   104   52   54 am   BACKBONE|DICT|INTERRES
   105   54   55 1    
   106   54  120 1    
   107   55   56 1    
   108   55   57 1    
   109   55  121 1    
   110   56  122 1    
   111   56  123 1    
   112   56  124 1    
   113   57   58 2    
   114   57   59 am   BACKBONE|DICT|INTERRES
   115   59   60 1    
   116   59  125 1    
   117   60   61 1    
   118   60   62 1    
   119   60  126 1    
   120   61  127 1    
   121   61  128 1    
   122   61  129 1    
   123   62   63 2    
   124   62   64 am   BACKBONE|DICT|INTERRES
   125   64   65 1    
   126   64  130 1    
   127   65   66 1    
   128   65   69 1    
   129   65  131 1    
   130   66   67 am   BACKBONE|DICT|INTERRES
   131   66   68 2    
   132   67  132 1    
   133   67  133 1    
   134   69   70 1    
   135   69  134 1    
   136   69  135 1    
   137   70   71 1    
   138   71  136 1    
   139   71  137 1    
@<TRIPOS>SUBSTRUCTURE
     1 UNK         1 GROUP             0       ****    0 ROOT    
