@<TRIPOS>MOLECULE
3R137
137   139    1
SMALL
USER_CHARGES


@<TRIPOS>ATOM
      1 CA         23.3452   -5.3521   -3.3254 C.3       0 UNK        -0.2020 
      2 C          24.1934   -4.9950   -2.1148 C.2       0 UNK         0.4855 
      3 O          24.0813   -5.6373   -1.0701 O.2       0 UNK        -0.5197 
      4 N          25.0254   -3.9562   -2.2352 N.am      1 UNK        -0.4892 
      5 CA         25.9117   -3.4449   -1.1876 C.3       1 UNK         0.0835 
      6 C6         27.1679   -2.7664   -1.7891 C.3       12 UNK        -0.0855 
      7 S7         28.2008   -3.9489   -2.7193 S.3       12 UNK        -0.2931 
      8 C8         29.8699   -3.2875   -2.4252 C.3       12 UNK         0.0378 
      9 C9         30.2060   -2.1830   -3.4147 C.ar      12 UNK        -0.0802 
     10 C10        30.8865   -2.4944   -4.5960 C.ar      12 UNK        -0.0944 
     11 C11        31.2091   -1.4917   -5.5132 C.ar      12 UNK        -0.0787 
     12 C12        30.8387   -0.1720   -5.2455 C.ar      12 UNK        -0.0862 
     13 C13        30.1606    0.1547   -4.0675 C.ar      12 UNK        -0.0733 
     14 C14        29.8517   -0.8551   -3.1504 C.ar      12 UNK        -0.0832 
     15 C15        29.7784    1.6046   -3.7922 C.3       12 UNK         0.0240 
     16 S16        27.9790    1.8992   -3.8556 S.3       12 UNK        -0.2522 
     17 C17        27.5010    1.1117   -5.4308 C.3       12 UNK        -0.0967 
     18 CA         26.6659   -0.1620   -5.1545 C.3       5 UNK         0.0660 
     19 N          25.3119    0.1795   -4.7071 N.am      5 UNK        -0.4015 
     20 C          24.4043   -0.6876   -4.2448 C.2       4 UNK         0.4946 
     21 O          24.6157   -1.8918   -4.0726 O.2       4 UNK        -0.5353 
     22 CA         23.0115   -0.1176   -3.9563 C.3       4 UNK         0.0277 
     23 CB         22.2006   -0.0155   -5.2650 C.3       4 UNK        -0.1981 
     24 N          22.3409   -0.9959   -3.0013 N.am      4 UNK        -0.4209 
     25 C          21.1919   -0.7432   -2.3631 C.2       3 UNK         0.4942 
     26 O          20.5476    0.2992   -2.4873 O.2       3 UNK        -0.5208 
     27 CA         20.6732   -1.8436   -1.4238 C.3       3 UNK         0.0250 
     28 CB         20.0954   -3.0214   -2.2268 C.3       3 UNK        -0.1990 
     29 N          21.7116   -2.3284   -0.5130 N.am      3 UNK        -0.4232 
     30 C          22.1479   -1.6588    0.5643 C.2       2 UNK         0.4993 
     31 O          21.6971   -0.5725    0.9291 O.2       2 UNK        -0.5286 
     32 CA         23.2781   -2.3149    1.3757 C.3       2 UNK         0.0209 
     33 CB         22.7017   -3.2521    2.4495 C.3       2 UNK        -0.1931 
     34 N          24.2149   -3.0596    0.5303 N.am      2 UNK        -0.4546 
     35 C          25.1081   -2.4880   -0.2879 C.2       1 UNK         0.5154 
     36 O          25.2676   -1.2690   -0.3759 O.2       1 UNK        -0.5181 
     37 C          26.6310   -1.0825   -6.3881 C.2       5 UNK         0.5014 
     38 O          25.8060   -0.8762   -7.2819 O.2       5 UNK        -0.5248 
     39 N          27.5377   -2.0696   -6.4141 N.am      6 UNK        -0.4434 
     40 CA         27.6327   -3.0825   -7.4698 C.3       6 UNK         0.0363 
     41 CB         28.5792   -4.2039   -7.0132 C.3       6 UNK        -0.1936 
     42 C          28.0772   -2.5214   -8.8327 C.2       6 UNK         0.5081 
     43 O          27.6954   -3.0758   -9.8639 O.2       6 UNK        -0.5248 
     44 N          28.8591   -1.4369   -8.8176 N.am      7 UNK        -0.4718 
     45 CA         29.3231   -0.7005   -9.9886 C.3       7 UNK         0.0273 
     46 CB         30.4567   -1.4695  -10.6958 C.3       7 UNK        -0.1935 
     47 C          29.7735    0.6962   -9.5440 C.2       7 UNK         0.5018 
     48 O          30.1231    0.8822   -8.3758 O.2       7 UNK        -0.5186 
     49 N          29.7569    1.6468  -10.4828 N.am      8 UNK        -0.4240 
     50 CA         30.2250    3.0209  -10.2911 C.3       8 UNK         0.0235 
     51 CB         29.3613    3.9515  -11.1623 C.3       8 UNK        -0.2000 
     52 C          31.7121    3.1514  -10.6646 C.2       8 UNK         0.4941 
     53 O          32.2912    2.2108  -11.2120 O.2       8 UNK        -0.5273 
     54 N          32.2866    4.3323  -10.3848 N.am      9 UNK        -0.4262 
     55 CA         33.6447    4.7690  -10.7447 C.3       9 UNK         0.0264 
     56 CB         33.7571    4.9700  -12.2717 C.3       9 UNK        -0.1955 
     57 C          34.7392    3.8408  -10.1853 C.2       9 UNK         0.5031 
     58 O          35.5047    3.2506  -10.9512 O.2       9 UNK        -0.5390 
     59 N          34.7558    3.6987   -8.8505 N.am      10 UNK        -0.4204 
     60 CA         35.6569    2.8359   -8.0677 C.3       10 UNK         0.0237 
     61 CB         37.1010    3.3814   -8.1035 C.3       10 UNK        -0.1985 
     62 C          35.5686    1.3476   -8.4685 C.2       10 UNK         0.4970 
     63 O          36.5789    0.6421   -8.4594 O.2       10 UNK        -0.4914 
     64 N          34.3522    0.9189   -8.8273 N.am      11 UNK        -0.4285 
     65 CA         33.9977   -0.4088   -9.3495 C.3       11 UNK         0.1007 
     66 C          34.5225   -0.7019  -10.7888 C.2       11 UNK         0.5703 
     67 N          35.0461    0.2704  -11.5270 N.am      11 UNK        -0.7361 
     68 O          34.4294   -1.8326  -11.2611 O.2       11 UNK        -0.4986 
     69 C69        34.2860   -1.5812   -8.3623 C.3       12 UNK        -0.0947 
     70 S70        33.6986   -1.2837   -6.6613 S.3       12 UNK        -0.2240 
     71 C71        31.9689   -1.8211   -6.7877 C.3       12 UNK         0.0194 
     72 H72        23.3741   -4.5707   -4.0852 H         1 UNK         0.0906 
     73 H73        23.7070   -6.2769   -3.7736 H         1 UNK         0.0906 
     74 H74        22.3072   -5.5020   -3.0304 H         1 UNK         0.0906 
     75 H75        25.0133   -3.3946   -3.0862 H         1 UNK         0.3140 
     76 H76        26.2505   -4.2743   -0.5621 H         1 UNK         0.1085 
     77 H77        27.7659   -2.3222   -0.9915 H         1 UNK         0.0836 
     78 H78        26.8869   -1.9473   -2.4509 H         1 UNK         0.0836 
     79 H79        30.5875   -4.1035   -2.5243 H         1 UNK         0.0731 
     80 H80        29.9680   -2.9289   -1.3996 H         1 UNK         0.0731 
     81 H81        31.1710   -3.5183   -4.7977 H         1 UNK         0.1312 
     82 H82        31.0918    0.6036   -5.9560 H         1 UNK         0.1406 
     83 H83        29.3290   -0.6058   -2.2369 H         1 UNK         0.1631 
     84 H84        30.2641    2.2718   -4.5061 H         1 UNK         0.0717 
     85 H85        30.1485    1.8933   -2.8075 H         1 UNK         0.0717 
     86 H86        26.9351    1.8270   -6.0305 H         1 UNK         0.0934 
     87 H87        28.3956    0.8927   -6.0158 H         1 UNK         0.0934 
     88 H88        27.1425   -0.7228   -4.3494 H         1 UNK         0.0739 
     89 H89        25.0410    1.1433   -4.8318 H         1 UNK         0.3093 
     90 H90        23.1202    0.8712   -3.5058 H         1 UNK         0.0818 
     91 H91        22.7193    0.5962   -6.0044 H         1 UNK         0.0819 
     92 H92        22.0387   -0.9972   -5.7122 H         1 UNK         0.0819 
     93 H93        21.2252    0.4426   -5.1026 H         1 UNK         0.0819 
     94 H94        22.8348   -1.8623   -2.8329 H         1 UNK         0.3041 
     95 H95        19.8639   -1.4177   -0.8260 H         1 UNK         0.0784 
     96 H96        19.2928   -2.6849   -2.8846 H         1 UNK         0.0793 
     97 H97        20.8489   -3.4985   -2.8537 H         1 UNK         0.0793 
     98 H98        19.6747   -3.7820   -1.5687 H         1 UNK         0.0793 
     99 H99        22.1308   -3.2222   -0.7212 H         1 UNK         0.3024 
    100 H100       23.8274   -1.5147    1.8778 H         1 UNK         0.1171 
    101 H101       22.1533   -4.0858    2.0089 H         1 UNK         0.0786 
    102 H102       23.4897   -3.6644    3.0800 H         1 UNK         0.0786 
    103 H103       22.0118   -2.7172    3.1040 H         1 UNK         0.0786 
    104 H104       24.1188   -4.0683    0.4993 H         1 UNK         0.2977 
    105 H105       28.1828   -2.1632   -5.6411 H         1 UNK         0.3127 
    106 H106       26.6378   -3.5128   -7.6038 H         1 UNK         0.0770 
    107 H107       29.5995   -3.8437   -6.8847 H         1 UNK         0.0814 
    108 H108       28.6105   -5.0088   -7.7487 H         1 UNK         0.0814 
    109 H109       28.2544   -4.6412   -6.0686 H         1 UNK         0.0814 
    110 H110       29.1084   -1.0102   -7.9339 H         1 UNK         0.2983 
    111 H111       28.4850   -0.5773  -10.6784 H         1 UNK         0.0947 
    112 H112       30.9479   -0.8553  -11.4521 H         1 UNK         0.0806 
    113 H113       30.0727   -2.3548  -11.2027 H         1 UNK         0.0806 
    114 H114       31.2201   -1.8030   -9.9944 H         1 UNK         0.0806 
    115 H115       29.5162    1.3900  -11.4293 H         1 UNK         0.3000 
    116 H116       30.1065    3.3081   -9.2437 H         1 UNK         0.0850 
    117 H117       29.4834    3.7385  -12.2252 H         1 UNK         0.0810 
    118 H118       29.6225    4.9992  -11.0088 H         1 UNK         0.0810 
    119 H119       28.3031    3.8492  -10.9207 H         1 UNK         0.0810 
    120 H120       31.7228    5.0286   -9.9162 H         1 UNK         0.3040 
    121 H121       33.7968    5.7429  -10.2764 H         1 UNK         0.0766 
    122 H122       33.6266    4.0334  -12.8152 H         1 UNK         0.0812 
    123 H123       33.0096    5.6748  -12.6354 H         1 UNK         0.0812 
    124 H124       34.7362    5.3677  -12.5418 H         1 UNK         0.0812 
    125 H125       34.0701    4.2141   -8.3149 H         1 UNK         0.3205 
    126 H126       35.3117    2.8876   -7.0340 H         1 UNK         0.0754 
    127 H127       37.7478    2.8239   -7.4248 H         1 UNK         0.0769 
    128 H128       37.1380    4.4268   -7.7973 H         1 UNK         0.0769 
    129 H129       37.5364    3.3084   -9.1007 H         1 UNK         0.0769 
    130 H130       33.5994    1.5901   -8.8358 H         1 UNK         0.2981 
    131 H131       32.9170   -0.3545   -9.4679 H         1 UNK         0.0541 
    132 H132       35.3659    0.0603  -12.4583 H         1 UNK         0.3459 
    133 H133       35.1023    1.2212  -11.1795 H         1 UNK         0.3459 
    134 H134       35.3585   -1.7748   -8.3111 H         1 UNK         0.0612 
    135 H135       33.8331   -2.5057   -8.7246 H         1 UNK         0.0612 
    136 H136       31.9362   -2.8909   -6.9987 H         1 UNK         0.0624 
    137 H137       31.4967   -1.3195   -7.6310 H         1 UNK         0.0624 
@<TRIPOS>BOND
     1    1    2 1    
     2    1   72 1    
     3    1   73 1    
     4    1   74 1    
     5    2    3 2    
     6    2    4 am   BACKBONE|DICT|INTERRES
     7    4    5 1    
     8    4   75 1    
     9    5    6 1    
    10    5   35 1    
    11    5   76 1    
    12    6    7 1    
    13    6   77 1    
    14    6   78 1    
    15    7    8 1    
    16    8    9 1    
    17    8   79 1    
    18    8   80 1    
    19    9   10 ar   
    20    9   14 ar   
    21   10   11 ar   
    22   10   81 1    
    23   11   12 ar   
    24   11   71 1    
    25   12   13 ar   
    26   12   82 1    
    27   13   14 ar   
    28   13   15 1    
    29   14   83 1    
    30   15   16 1    
    31   15   84 1    
    32   15   85 1    
    33   16   17 1    
    34   17   18 1    
    35   17   86 1    
    36   17   87 1    
    37   18   19 1    
    38   18   37 1    
    39   18   88 1    
    40   19   20 am   BACKBONE|DICT|INTERRES
    41   19   89 1    
    42   20   21 2    
    43   20   22 1    
    44   22   23 1    
    45   22   24 1    
    46   22   90 1    
    47   23   91 1    
    48   23   92 1    
    49   23   93 1    
    50   24   25 am   BACKBONE|DICT|INTERRES
    51   24   94 1    
    52   25   26 2    
    53   25   27 1    
    54   27   28 1    
    55   27   29 1    
    56   27   95 1    
    57   28   96 1    
    58   28   97 1    
    59   28   98 1    
    60   29   30 am   BACKBONE|DICT|INTERRES
    61   29   99 1    
    62   30   31 2    
    63   30   32 1    
    64   32   33 1    
    65   32   34 1    
    66   32  100 1    
    67   33  101 1    
    68   33  102 1    
    69   33  103 1    
    70   34   35 am   BACKBONE|DICT|INTERRES
    71   34  104 1    
    72   35   36 2    
    73   37   38 2    
    74   37   39 am   BACKBONE|DICT|INTERRES
    75   39   40 1    
    76   39  105 1    
    77   40   41 1    
    78   40   42 1    
    79   40  106 1    
    80   41  107 1    
    81   41  108 1    
    82   41  109 1    
    83   42   43 2    
    84   42   44 am   BACKBONE|DICT|INTERRES
    85   44   45 1    
    86   44  110 1    
    87   45   46 1    
    88   45   47 1    
    89   45  111 1    
    90   46  112 1    
    91   46  113 1    
    92   46  114 1    
    93   47   48 2    
    94   47   49 am   BACKBONE|DICT|INTERRES
    95   49   50 1    
    96   49  115 1    
    97   50   51 1    
    98   50   52 1    
    99   50  116 1    
   100   51  117 1    
   101   51  118 1    
   102   51  119 1    
   103   52   53 2    
   104   52   54 am   BACKBONE|DICT|INTERRES
   105   54   55 1    
   106   54  120 1    
   107   55   56 1    
   108   55   57 1    
   109   55  121 1    
   110   56  122 1    
   111   56  123 1    
   112   56  124 1    
   113   57   58 2    
   114   57   59 am   BACKBONE|DICT|INTERRES
   115   59   60 1    
   116   59  125 1    
   117   60   61 1    
   118   60   62 1    
   119   60  126 1    
   120   61  127 1    
   121   61  128 1    
   122   61  129 1    
   123   62   63 2    
   124   62   64 am   BACKBONE|DICT|INTERRES
   125   64   65 1    
   126   64  130 1    
   127   65   66 1    
   128   65   69 1    
   129   65  131 1    
   130   66   67 am   BACKBONE|DICT|INTERRES
   131   66   68 2    
   132   67  132 1    
   133   67  133 1    
   134   69   70 1    
   135   69  134 1    
   136   69  135 1    
   137   70   71 1    
   138   71  136 1    
   139   71  137 1    
@<TRIPOS>SUBSTRUCTURE
     1 UNK         1 GROUP             0       ****    0 ROOT    
