@<TRIPOS>MOLECULE
3R137
137   139    1
SMALL
USER_CHARGES


@<TRIPOS>ATOM
      1 CA         25.0903   -6.3350   -2.8585 C.3       0 UNK        -0.2020 
      2 C          25.3678   -5.1987   -1.8867 C.2       0 UNK         0.4855 
      3 O          24.4350   -4.5278   -1.4432 O.2       0 UNK        -0.5197 
      4 N          26.6458   -4.9666   -1.5625 N.am      1 UNK        -0.4892 
      5 CA         27.1338   -3.8771   -0.7100 C.3       1 UNK         0.0835 
      6 C6         28.6533   -3.9982   -0.4080 C.3       12 UNK        -0.0855 
      7 S7         29.6897   -4.5068   -1.8303 S.3       12 UNK        -0.2931 
      8 C8         31.2862   -3.7302   -1.4326 C.3       12 UNK         0.0378 
      9 C9         31.5041   -2.4542   -2.2318 C.ar      12 UNK        -0.0802 
     10 C10        32.2228   -2.4964   -3.4298 C.ar      12 UNK        -0.0944 
     11 C11        32.4505   -1.3304   -4.1672 C.ar      12 UNK        -0.0787 
     12 C12        31.9613   -0.1108   -3.6885 C.ar      12 UNK        -0.0862 
     13 C13        31.2442   -0.0535   -2.4881 C.ar      12 UNK        -0.0733 
     14 C14        31.0142   -1.2305   -1.7673 C.ar      12 UNK        -0.0832 
     15 C15        30.7512    1.2820   -1.9427 C.3       12 UNK         0.0240 
     16 S16        29.6510    2.1692   -3.0925 S.3       12 UNK        -0.2522 
     17 C17        28.2552    1.0078   -3.2704 C.3       12 UNK        -0.0967 
     18 CA         28.0458    0.5662   -4.7424 C.3       5 UNK         0.0660 
     19 N          27.4868   -0.7902   -4.8188 N.am      5 UNK        -0.4015 
     20 C          27.2488   -1.4997   -5.9330 C.2       4 UNK         0.4946 
     21 O          27.4653   -1.0928   -7.0754 O.2       4 UNK        -0.5353 
     22 CA         26.6037   -2.8797   -5.7403 C.3       4 UNK         0.0277 
     23 CB         27.6309   -3.9161   -5.2537 C.3       4 UNK        -0.1981 
     24 N          25.4863   -2.7911   -4.7996 N.am      4 UNK        -0.4209 
     25 C          24.2607   -2.3584   -5.1333 C.2       3 UNK         0.4942 
     26 O          23.9111   -2.1257   -6.2900 O.2       3 UNK        -0.5208 
     27 CA         23.2568   -2.1148   -3.9924 C.3       3 UNK         0.0250 
     28 CB         22.3131   -3.3168   -3.8289 C.3       3 UNK        -0.1990 
     29 N          23.9073   -1.8121   -2.7139 N.am      3 UNK        -0.4232 
     30 C          24.5241   -0.6493   -2.4485 C.2       2 UNK         0.4993 
     31 O          24.5703    0.2921   -3.2399 O.2       2 UNK        -0.5286 
     32 CA         25.2587   -0.5277   -1.1000 C.3       2 UNK         0.0209 
     33 CB         24.3174    0.0369   -0.0246 C.3       2 UNK        -0.1931 
     34 N          25.8416   -1.7883   -0.6274 N.am      2 UNK        -0.4546 
     35 C          26.7513   -2.5059   -1.3011 C.2       1 UNK         0.5154 
     36 O          27.2208   -2.1526   -2.3834 O.2       1 UNK        -0.5181 
     37 C          27.2360    1.6246   -5.5275 C.2       5 UNK         0.5014 
     38 O          27.7969    2.6475   -5.9200 O.2       5 UNK        -0.5248 
     39 N          25.9469    1.3591   -5.7857 N.am      6 UNK        -0.4434 
     40 CA         25.0641    2.1551   -6.6440 C.3       6 UNK         0.0363 
     41 CB         23.6676    1.5141   -6.6539 C.3       6 UNK        -0.1936 
     42 C          25.5786    2.3474   -8.0869 C.2       6 UNK         0.5081 
     43 O          25.2117    3.3367   -8.7210 O.2       6 UNK        -0.5248 
     44 N          26.4355    1.4350   -8.5714 N.am      7 UNK        -0.4718 
     45 CA         27.1362    1.5446   -9.8559 C.3       7 UNK         0.0273 
     46 CB         27.2833    0.1412  -10.4667 C.3       7 UNK        -0.1935 
     47 C          28.4881    2.2896   -9.7564 C.2       7 UNK         0.5018 
     48 O          29.2446    2.2903  -10.7293 O.2       7 UNK        -0.5186 
     49 N          28.7616    2.9325   -8.6103 N.am      8 UNK        -0.4240 
     50 CA         29.9451    3.7356   -8.2881 C.3       8 UNK         0.0235 
     51 CB         30.0548    4.9709   -9.2135 C.3       8 UNK        -0.2000 
     52 C          31.2160    2.8712   -8.2083 C.2       8 UNK         0.4941 
     53 O          31.1780    1.8098   -7.5858 O.2       8 UNK        -0.5273 
     54 N          32.3232    3.3416   -8.8021 N.am      9 UNK        -0.4262 
     55 CA         33.6265    2.6671   -8.8032 C.3       9 UNK         0.0264 
     56 CB         34.6887    3.6049   -9.3991 C.3       9 UNK        -0.1955 
     57 C          33.6201    1.3183   -9.5430 C.2       9 UNK         0.5031 
     58 O          34.3376    0.4032   -9.1377 O.2       9 UNK        -0.5390 
     59 N          32.7838    1.2009  -10.5824 N.am      10 UNK        -0.4204 
     60 CA         32.5130   -0.0401  -11.3083 C.3       10 UNK         0.0237 
     61 CB         32.2516    0.2964  -12.7889 C.3       10 UNK        -0.1985 
     62 C          31.3352   -0.7780  -10.6460 C.2       10 UNK         0.4970 
     63 O          30.3304   -1.0463  -11.3060 O.2       10 UNK        -0.4914 
     64 N          31.4713   -1.0453   -9.3411 N.am      11 UNK        -0.4285 
     65 CA         30.4432   -1.6243   -8.4686 C.3       11 UNK         0.1007 
     66 C          29.8827   -2.9923   -8.9467 C.2       11 UNK         0.5703 
     67 N          28.5924   -3.2224   -8.7477 N.am      11 UNK        -0.7361 
     68 O          30.6033   -3.8452   -9.4627 O.2       11 UNK        -0.4986 
     69 C69        30.8914   -1.6646   -6.9847 C.3       12 UNK        -0.0947 
     70 S70        32.4883   -2.4985   -6.6962 S.3       12 UNK        -0.2240 
     71 C71        33.2440   -1.3855   -5.4682 C.3       12 UNK         0.0194 
     72 H72        24.3389   -7.0072   -2.4452 H         1 UNK         0.0906 
     73 H73        24.7137   -5.9393   -3.8012 H         1 UNK         0.0906 
     74 H74        25.9866   -6.9181   -3.0690 H         1 UNK         0.0906 
     75 H75        27.3793   -5.5211   -1.9830 H         1 UNK         0.3140 
     76 H76        26.6136   -3.9744    0.2456 H         1 UNK         0.1085 
     77 H77        28.7986   -4.7499    0.3696 H         1 UNK         0.0836 
     78 H78        29.0352   -3.0685    0.0179 H         1 UNK         0.0836 
     79 H79        32.0810   -4.4445   -1.6534 H         1 UNK         0.0731 
     80 H80        31.3594   -3.5277   -0.3630 H         1 UNK         0.0731 
     81 H81        32.6052   -3.4404   -3.7938 H         1 UNK         0.1312 
     82 H82        32.1393    0.7984   -4.2471 H         1 UNK         0.1406 
     83 H83        30.4641   -1.1950   -0.8372 H         1 UNK         0.1631 
     84 H84        31.6149    1.9132   -1.7297 H         1 UNK         0.0717 
     85 H85        30.2293    1.1485   -0.9938 H         1 UNK         0.0717 
     86 H86        28.4556    0.1417   -2.6394 H         1 UNK         0.0934 
     87 H87        27.3543    1.4654   -2.8573 H         1 UNK         0.0934 
     88 H88        29.0224    0.4995   -5.2278 H         1 UNK         0.0739 
     89 H89        27.3208   -1.2484   -3.9237 H         1 UNK         0.3093 
     90 H90        26.2252   -3.2153   -6.7084 H         1 UNK         0.0818 
     91 H91        28.4318   -4.0423   -5.9828 H         1 UNK         0.0819 
     92 H92        28.0995   -3.6259   -4.3137 H         1 UNK         0.0819 
     93 H93        27.1703   -4.8932   -5.1091 H         1 UNK         0.0819 
     94 H94        25.7109   -2.9073   -3.8203 H         1 UNK         0.3041 
     95 H95        22.6504   -1.2508   -4.2738 H         1 UNK         0.0784 
     96 H96        21.7628   -3.5058   -4.7516 H         1 UNK         0.0793 
     97 H97        22.8539   -4.2300   -3.5829 H         1 UNK         0.0793 
     98 H98        21.5774   -3.1406   -3.0440 H         1 UNK         0.0793 
     99 H99        23.9488   -2.5631   -2.0318 H         1 UNK         0.3024 
    100 H100       26.0778    0.1799   -1.2405 H         1 UNK         0.1171 
    101 H101       24.8470    0.2211    0.9104 H         1 UNK         0.0786 
    102 H102       23.8872    0.9876   -0.3433 H         1 UNK         0.0786 
    103 H103       23.4894   -0.6416    0.1850 H         1 UNK         0.0786 
    104 H104       25.4691   -2.1604    0.2349 H         1 UNK         0.2977 
    105 H105       25.5385    0.5405   -5.3543 H         1 UNK         0.3127 
    106 H106       24.9845    3.1464   -6.1936 H         1 UNK         0.0770 
    107 H107       23.6878    0.5149   -7.0909 H         1 UNK         0.0814 
    108 H108       22.9675    2.1118   -7.2391 H         1 UNK         0.0814 
    109 H109       23.2598    1.4317   -5.6460 H         1 UNK         0.0814 
    110 H110       26.6954    0.6479   -7.9840 H         1 UNK         0.2983 
    111 H111       26.5247    2.1300  -10.5459 H         1 UNK         0.0947 
    112 H112       27.8583   -0.5220   -9.8248 H         1 UNK         0.0806 
    113 H113       27.7893    0.1795  -11.4323 H         1 UNK         0.0806 
    114 H114       26.3101   -0.3207  -10.6324 H         1 UNK         0.0806 
    115 H115       28.1260    2.8049   -7.8279 H         1 UNK         0.3000 
    116 H116       29.7808    4.1049   -7.2747 H         1 UNK         0.0850 
    117 H117       30.8278    5.6586   -8.8684 H         1 UNK         0.0810 
    118 H118       29.1200    5.5316   -9.2249 H         1 UNK         0.0810 
    119 H119       30.2851    4.6985  -10.2441 H         1 UNK         0.0810 
    120 H120       32.2685    4.2286   -9.2820 H         1 UNK         0.3040 
    121 H121       33.8936    2.4654   -7.7635 H         1 UNK         0.0766 
    122 H122       34.7693    4.5293   -8.8269 H         1 UNK         0.0812 
    123 H123       34.4637    3.8671  -10.4337 H         1 UNK         0.0812 
    124 H124       35.6729    3.1340   -9.3895 H         1 UNK         0.0812 
    125 H125       32.1805    1.9829  -10.7965 H         1 UNK         0.3205 
    126 H126       33.3827   -0.6991  -11.2624 H         1 UNK         0.0754 
    127 H127       32.0715   -0.6093  -13.3695 H         1 UNK         0.0769 
    128 H128       33.1068    0.8027  -13.2370 H         1 UNK         0.0769 
    129 H129       31.3793    0.9410  -12.9083 H         1 UNK         0.0769 
    130 H130       32.3407   -0.7997   -8.8876 H         1 UNK         0.2981 
    131 H131       29.6213   -0.9109   -8.5133 H         1 UNK         0.0541 
    132 H132       28.1911   -4.0977   -9.0429 H         1 UNK         0.3459 
    133 H133       28.0196   -2.5127   -8.3035 H         1 UNK         0.3459 
    134 H134       30.9582   -0.6421   -6.6122 H         1 UNK         0.0612 
    135 H135       30.1381   -2.1459   -6.3598 H         1 UNK         0.0612 
    136 H136       33.3469   -0.3922   -5.9089 H         1 UNK         0.0624 
    137 H137       34.2545   -1.7344   -5.2523 H         1 UNK         0.0624 
@<TRIPOS>BOND
     1    1    2 1    
     2    1   72 1    
     3    1   73 1    
     4    1   74 1    
     5    2    3 2    
     6    2    4 am   BACKBONE|DICT|INTERRES
     7    4    5 1    
     8    4   75 1    
     9    5    6 1    
    10    5   35 1    
    11    5   76 1    
    12    6    7 1    
    13    6   77 1    
    14    6   78 1    
    15    7    8 1    
    16    8    9 1    
    17    8   79 1    
    18    8   80 1    
    19    9   10 ar   
    20    9   14 ar   
    21   10   11 ar   
    22   10   81 1    
    23   11   12 ar   
    24   11   71 1    
    25   12   13 ar   
    26   12   82 1    
    27   13   14 ar   
    28   13   15 1    
    29   14   83 1    
    30   15   16 1    
    31   15   84 1    
    32   15   85 1    
    33   16   17 1    
    34   17   18 1    
    35   17   86 1    
    36   17   87 1    
    37   18   19 1    
    38   18   37 1    
    39   18   88 1    
    40   19   20 am   BACKBONE|DICT|INTERRES
    41   19   89 1    
    42   20   21 2    
    43   20   22 1    
    44   22   23 1    
    45   22   24 1    
    46   22   90 1    
    47   23   91 1    
    48   23   92 1    
    49   23   93 1    
    50   24   25 am   BACKBONE|DICT|INTERRES
    51   24   94 1    
    52   25   26 2    
    53   25   27 1    
    54   27   28 1    
    55   27   29 1    
    56   27   95 1    
    57   28   96 1    
    58   28   97 1    
    59   28   98 1    
    60   29   30 am   BACKBONE|DICT|INTERRES
    61   29   99 1    
    62   30   31 2    
    63   30   32 1    
    64   32   33 1    
    65   32   34 1    
    66   32  100 1    
    67   33  101 1    
    68   33  102 1    
    69   33  103 1    
    70   34   35 am   BACKBONE|DICT|INTERRES
    71   34  104 1    
    72   35   36 2    
    73   37   38 2    
    74   37   39 am   BACKBONE|DICT|INTERRES
    75   39   40 1    
    76   39  105 1    
    77   40   41 1    
    78   40   42 1    
    79   40  106 1    
    80   41  107 1    
    81   41  108 1    
    82   41  109 1    
    83   42   43 2    
    84   42   44 am   BACKBONE|DICT|INTERRES
    85   44   45 1    
    86   44  110 1    
    87   45   46 1    
    88   45   47 1    
    89   45  111 1    
    90   46  112 1    
    91   46  113 1    
    92   46  114 1    
    93   47   48 2    
    94   47   49 am   BACKBONE|DICT|INTERRES
    95   49   50 1    
    96   49  115 1    
    97   50   51 1    
    98   50   52 1    
    99   50  116 1    
   100   51  117 1    
   101   51  118 1    
   102   51  119 1    
   103   52   53 2    
   104   52   54 am   BACKBONE|DICT|INTERRES
   105   54   55 1    
   106   54  120 1    
   107   55   56 1    
   108   55   57 1    
   109   55  121 1    
   110   56  122 1    
   111   56  123 1    
   112   56  124 1    
   113   57   58 2    
   114   57   59 am   BACKBONE|DICT|INTERRES
   115   59   60 1    
   116   59  125 1    
   117   60   61 1    
   118   60   62 1    
   119   60  126 1    
   120   61  127 1    
   121   61  128 1    
   122   61  129 1    
   123   62   63 2    
   124   62   64 am   BACKBONE|DICT|INTERRES
   125   64   65 1    
   126   64  130 1    
   127   65   66 1    
   128   65   69 1    
   129   65  131 1    
   130   66   67 am   BACKBONE|DICT|INTERRES
   131   66   68 2    
   132   67  132 1    
   133   67  133 1    
   134   69   70 1    
   135   69  134 1    
   136   69  135 1    
   137   70   71 1    
   138   71  136 1    
   139   71  137 1    
@<TRIPOS>SUBSTRUCTURE
     1 UNK         1 GROUP             0       ****    0 ROOT    
