@<TRIPOS>MOLECULE
3R137
137   139    1
SMALL
USER_CHARGES


@<TRIPOS>ATOM
      1 CA         25.9992   -1.8387    2.8482 C.3       0 UNK        -0.2020 
      2 C          26.3983   -1.6089    1.3987 C.2       0 UNK         0.4855 
      3 O          26.0684   -0.5698    0.8273 O.2       0 UNK        -0.5197 
      4 N          27.0864   -2.5793    0.7852 N.am      1 UNK        -0.4892 
      5 CA         27.6225   -2.5346   -0.5856 C.3       1 UNK         0.0835 
      6 C6         28.8468   -3.4781   -0.7323 C.3       12 UNK        -0.0855 
      7 S7         30.2024   -3.0022    0.4009 S.3       12 UNK        -0.2931 
      8 C8         31.6875   -3.1155   -0.6544 C.3       12 UNK         0.0378 
      9 C9         31.5915   -2.2771   -1.9234 C.ar      12 UNK        -0.0802 
     10 C10        31.7830   -2.8806   -3.1707 C.ar      12 UNK        -0.0944 
     11 C11        31.6758   -2.1329   -4.3461 C.ar      12 UNK        -0.0787 
     12 C12        31.3660   -0.7742   -4.2665 C.ar      12 UNK        -0.0862 
     13 C13        31.1773   -0.1552   -3.0277 C.ar      12 UNK        -0.0733 
     14 C14        31.3072   -0.9085   -1.8572 C.ar      12 UNK        -0.0832 
     15 C15        30.8205    1.3244   -2.9635 C.3       12 UNK         0.0240 
     16 S16        29.1447    1.6378   -2.3060 S.3       12 UNK        -0.2522 
     17 C17        28.1044    0.3760   -3.1187 C.3       12 UNK        -0.0967 
     18 CA         28.0632    0.4518   -4.6630 C.3       5 UNK         0.0660 
     19 N          27.5911   -0.8088   -5.2271 N.am      5 UNK        -0.4015 
     20 C          27.9770   -1.3255   -6.3997 C.2       4 UNK         0.4946 
     21 O          28.8255   -0.8212   -7.1381 O.2       4 UNK        -0.5353 
     22 CA         27.2874   -2.6299   -6.8331 C.3       4 UNK         0.0277 
     23 CB         28.1005   -3.8463   -6.3627 C.3       4 UNK        -0.1981 
     24 N          25.9092   -2.7486   -6.3528 N.am      4 UNK        -0.4209 
     25 C          24.9038   -1.9483   -6.7356 C.2       3 UNK         0.4942 
     26 O          25.0274   -1.0337   -7.5496 O.2       3 UNK        -0.5208 
     27 CA         23.5415   -2.1735   -6.0592 C.3       3 UNK         0.0250 
     28 CB         22.7307   -3.2276   -6.8296 C.3       3 UNK        -0.1990 
     29 N          23.6158   -2.5537   -4.6433 N.am      3 UNK        -0.4232 
     30 C          24.2631   -1.8876   -3.6752 C.2       2 UNK         0.4993 
     31 O          24.9502   -0.8833   -3.8800 O.2       2 UNK        -0.5286 
     32 CA         24.1066   -2.4149   -2.2356 C.3       2 UNK         0.0209 
     33 CB         23.5939   -3.8715   -2.1468 C.3       2 UNK        -0.1931 
     34 N          25.3287   -2.2563   -1.4401 N.am      2 UNK        -0.4546 
     35 C          26.5343   -2.8001   -1.6593 C.2       1 UNK         0.5154 
     36 O          26.7929   -3.4962   -2.6436 O.2       1 UNK        -0.5181 
     37 C          27.2129    1.6228   -5.1792 C.2       5 UNK         0.5014 
     38 O          27.7771    2.6474   -5.5626 O.2       5 UNK        -0.5248 
     39 N          25.8840    1.4385   -5.2402 N.am      6 UNK        -0.4434 
     40 CA         24.9198    2.4164   -5.7611 C.3       6 UNK         0.0363 
     41 CB         23.4924    1.8851   -5.5657 C.3       6 UNK        -0.1936 
     42 C          25.1533    2.7989   -7.2352 C.2       6 UNK         0.5081 
     43 O          24.8563    3.9307   -7.6179 O.2       6 UNK        -0.5248 
     44 N          25.7141    1.8700   -8.0233 N.am      7 UNK        -0.4718 
     45 CA         26.1854    2.0934   -9.3937 C.3       7 UNK         0.0273 
     46 CB         26.5801    0.7388  -10.0065 C.3       7 UNK        -0.1935 
     47 C          27.3618    3.0859   -9.5036 C.2       7 UNK         0.5018 
     48 O          27.5609    3.6461  -10.5817 O.2       7 UNK        -0.5186 
     49 N          28.1093    3.2695   -8.4031 N.am      8 UNK        -0.4240 
     50 CA         29.2951    4.1162   -8.2258 C.3       8 UNK         0.0235 
     51 CB         28.8508    5.5845   -8.0612 C.3       8 UNK        -0.2000 
     52 C          30.3723    3.9404   -9.3224 C.2       8 UNK         0.4941 
     53 O          30.6488    4.8935  -10.0514 O.2       8 UNK        -0.5273 
     54 N          30.9897    2.7619   -9.4759 N.am      9 UNK        -0.4262 
     55 CA         30.8059    1.5064   -8.7519 C.3       9 UNK         0.0264 
     56 CB         31.8730    1.3809   -7.6530 C.3       9 UNK        -0.1955 
     57 C          30.9511    0.3764   -9.7727 C.2       9 UNK         0.5031 
     58 O          31.7705    0.4959  -10.6883 O.2       9 UNK        -0.5390 
     59 N          30.1917   -0.7107   -9.5894 N.am      10 UNK        -0.4204 
     60 CA         30.1975   -1.8709  -10.4907 C.3       10 UNK         0.0237 
     61 CB         29.0163   -2.7937  -10.1598 C.3       10 UNK        -0.1985 
     62 C          31.5185   -2.6581  -10.4567 C.2       10 UNK         0.4970 
     63 O          31.8888   -3.2621  -11.4637 O.2       10 UNK        -0.4914 
     64 N          32.2041   -2.6178   -9.3086 N.am      11 UNK        -0.4285 
     65 CA         33.5514   -3.1629   -9.1069 C.3       11 UNK         0.1007 
     66 C          34.7024   -2.2244   -9.5815 C.2       11 UNK         0.5703 
     67 N          34.4298   -1.0360  -10.1117 N.am      11 UNK        -0.7361 
     68 O          35.8711   -2.5918   -9.4861 O.2       11 UNK        -0.4986 
     69 C69        33.7379   -3.6761   -7.6539 C.3       12 UNK        -0.0947 
     70 S70        33.5397   -2.3987   -6.3618 S.3       12 UNK        -0.2240 
     71 C71        31.8905   -2.7915   -5.6999 C.3       12 UNK         0.0194 
     72 H72        26.3533   -2.7994    3.2217 H         1 UNK         0.0906 
     73 H73        26.4168   -1.0551    3.4799 H         1 UNK         0.0906 
     74 H74        24.9144   -1.8146    2.9475 H         1 UNK         0.0906 
     75 H75        27.3128   -3.4179    1.3013 H         1 UNK         0.3140 
     76 H76        27.9753   -1.5173   -0.7651 H         1 UNK         0.1085 
     77 H77        29.2149   -3.4683   -1.7591 H         1 UNK         0.0836 
     78 H78        28.5639   -4.5119   -0.5263 H         1 UNK         0.0836 
     79 H79        31.8595   -4.1658   -0.8953 H         1 UNK         0.0731 
     80 H80        32.5543   -2.7870   -0.0796 H         1 UNK         0.0731 
     81 H81        32.0140   -3.9356   -3.2288 H         1 UNK         0.1312 
     82 H82        31.2703   -0.1995   -5.1744 H         1 UNK         0.1406 
     83 H83        31.1562   -0.4361   -0.8958 H         1 UNK         0.1631 
     84 H84        30.9000    1.7847   -3.9497 H         1 UNK         0.0717 
     85 H85        31.5462    1.8398   -2.3330 H         1 UNK         0.0717 
     86 H86        28.4934   -0.5973   -2.8200 H         1 UNK         0.0934 
     87 H87        27.0991    0.4285   -2.6955 H         1 UNK         0.0934 
     88 H88        29.0751    0.6204   -5.0296 H         1 UNK         0.0739 
     89 H89        26.8414   -1.2663   -4.7215 H         1 UNK         0.3093 
     90 H90        27.2482   -2.6336   -7.9225 H         1 UNK         0.0818 
     91 H91        29.1221   -3.8060   -6.7409 H         1 UNK         0.0819 
     92 H92        28.1581   -3.8973   -5.2741 H         1 UNK         0.0819 
     93 H93        27.6633   -4.7787   -6.7202 H         1 UNK         0.0819 
     94 H94        25.7219   -3.4617   -5.6620 H         1 UNK         0.3041 
     95 H95        22.9942   -1.2320   -6.1072 H         1 UNK         0.0784 
     96 H96        22.6429   -2.9588   -7.8835 H         1 UNK         0.0793 
     97 H97        23.1978   -4.2123   -6.7824 H         1 UNK         0.0793 
     98 H98        21.7178   -3.3163   -6.4363 H         1 UNK         0.0793 
     99 H99        23.0867   -3.3709   -4.3748 H         1 UNK         0.3024 
    100 H100       23.3585   -1.7721   -1.7689 H         1 UNK         0.1171 
    101 H101       23.5360   -4.2019   -1.1095 H         1 UNK         0.0786 
    102 H102       22.5899   -3.9706   -2.5610 H         1 UNK         0.0786 
    103 H103       24.2458   -4.5680   -2.6760 H         1 UNK         0.0786 
    104 H104       25.2595   -1.6359   -0.6388 H         1 UNK         0.2977 
    105 H105       25.4979    0.5748   -4.8625 H         1 UNK         0.3127 
    106 H106       25.0310    3.3252   -5.1660 H         1 UNK         0.0770 
    107 H107       23.3006    1.0198   -6.1986 H         1 UNK         0.0814 
    108 H108       22.7565    2.6463   -5.8281 H         1 UNK         0.0814 
    109 H109       23.3081    1.5970   -4.5305 H         1 UNK         0.0814 
    110 H110       25.8211    0.9312   -7.6539 H         1 UNK         0.2983 
    111 H111       25.3559    2.5078   -9.9706 H         1 UNK         0.0947 
    112 H112       27.3677    0.2515   -9.4310 H         1 UNK         0.0806 
    113 H113       26.9463    0.8584  -11.0272 H         1 UNK         0.0806 
    114 H114       25.7286    0.0592  -10.0468 H         1 UNK         0.0806 
    115 H115       27.8186    2.7891   -7.5572 H         1 UNK         0.3000 
    116 H116       29.7574    3.8098   -7.2863 H         1 UNK         0.0850 
    117 H117       28.1586    5.6949   -7.2261 H         1 UNK         0.0810 
    118 H118       28.3550    5.9588   -8.9577 H         1 UNK         0.0810 
    119 H119       29.7045    6.2336   -7.8625 H         1 UNK         0.0810 
    120 H120       31.6324    2.6627  -10.2520 H         1 UNK         0.3040 
    121 H121       29.8188    1.4298   -8.3011 H         1 UNK         0.0766 
    122 H122       31.8679    0.3815   -7.2198 H         1 UNK         0.0812 
    123 H123       31.7001    2.0923   -6.8456 H         1 UNK         0.0812 
    124 H124       32.8768    1.5528   -8.0440 H         1 UNK         0.0812 
    125 H125       29.5955   -0.7598   -8.7615 H         1 UNK         0.3205 
    126 H126       30.0628   -1.5004  -11.5093 H         1 UNK         0.0754 
    127 H127       28.9475   -3.6094  -10.8809 H         1 UNK         0.0769 
    128 H128       28.0687   -2.2555  -10.1901 H         1 UNK         0.0769 
    129 H129       29.1269   -3.2439   -9.1737 H         1 UNK         0.0769 
    130 H130       31.8320   -2.0780   -8.5431 H         1 UNK         0.2981 
    131 H131       33.6422   -4.0432   -9.7459 H         1 UNK         0.0541 
    132 H132       33.4782   -0.7170  -10.2387 H         1 UNK         0.3459 
    133 H133       35.1936   -0.4543  -10.4168 H         1 UNK         0.3459 
    134 H134       33.0361   -4.4898   -7.4668 H         1 UNK         0.0612 
    135 H135       34.7267   -4.1224   -7.5346 H         1 UNK         0.0612 
    136 H136       31.1294   -2.4510   -6.4028 H         1 UNK         0.0624 
    137 H137       31.7737   -3.8725   -5.6109 H         1 UNK         0.0624 
@<TRIPOS>BOND
     1    1    2 1    
     2    1   72 1    
     3    1   73 1    
     4    1   74 1    
     5    2    3 2    
     6    2    4 am   BACKBONE|DICT|INTERRES
     7    4    5 1    
     8    4   75 1    
     9    5    6 1    
    10    5   35 1    
    11    5   76 1    
    12    6    7 1    
    13    6   77 1    
    14    6   78 1    
    15    7    8 1    
    16    8    9 1    
    17    8   79 1    
    18    8   80 1    
    19    9   10 ar   
    20    9   14 ar   
    21   10   11 ar   
    22   10   81 1    
    23   11   12 ar   
    24   11   71 1    
    25   12   13 ar   
    26   12   82 1    
    27   13   14 ar   
    28   13   15 1    
    29   14   83 1    
    30   15   16 1    
    31   15   84 1    
    32   15   85 1    
    33   16   17 1    
    34   17   18 1    
    35   17   86 1    
    36   17   87 1    
    37   18   19 1    
    38   18   37 1    
    39   18   88 1    
    40   19   20 am   BACKBONE|DICT|INTERRES
    41   19   89 1    
    42   20   21 2    
    43   20   22 1    
    44   22   23 1    
    45   22   24 1    
    46   22   90 1    
    47   23   91 1    
    48   23   92 1    
    49   23   93 1    
    50   24   25 am   BACKBONE|DICT|INTERRES
    51   24   94 1    
    52   25   26 2    
    53   25   27 1    
    54   27   28 1    
    55   27   29 1    
    56   27   95 1    
    57   28   96 1    
    58   28   97 1    
    59   28   98 1    
    60   29   30 am   BACKBONE|DICT|INTERRES
    61   29   99 1    
    62   30   31 2    
    63   30   32 1    
    64   32   33 1    
    65   32   34 1    
    66   32  100 1    
    67   33  101 1    
    68   33  102 1    
    69   33  103 1    
    70   34   35 am   BACKBONE|DICT|INTERRES
    71   34  104 1    
    72   35   36 2    
    73   37   38 2    
    74   37   39 am   BACKBONE|DICT|INTERRES
    75   39   40 1    
    76   39  105 1    
    77   40   41 1    
    78   40   42 1    
    79   40  106 1    
    80   41  107 1    
    81   41  108 1    
    82   41  109 1    
    83   42   43 2    
    84   42   44 am   BACKBONE|DICT|INTERRES
    85   44   45 1    
    86   44  110 1    
    87   45   46 1    
    88   45   47 1    
    89   45  111 1    
    90   46  112 1    
    91   46  113 1    
    92   46  114 1    
    93   47   48 2    
    94   47   49 am   BACKBONE|DICT|INTERRES
    95   49   50 1    
    96   49  115 1    
    97   50   51 1    
    98   50   52 1    
    99   50  116 1    
   100   51  117 1    
   101   51  118 1    
   102   51  119 1    
   103   52   53 2    
   104   52   54 am   BACKBONE|DICT|INTERRES
   105   54   55 1    
   106   54  120 1    
   107   55   56 1    
   108   55   57 1    
   109   55  121 1    
   110   56  122 1    
   111   56  123 1    
   112   56  124 1    
   113   57   58 2    
   114   57   59 am   BACKBONE|DICT|INTERRES
   115   59   60 1    
   116   59  125 1    
   117   60   61 1    
   118   60   62 1    
   119   60  126 1    
   120   61  127 1    
   121   61  128 1    
   122   61  129 1    
   123   62   63 2    
   124   62   64 am   BACKBONE|DICT|INTERRES
   125   64   65 1    
   126   64  130 1    
   127   65   66 1    
   128   65   69 1    
   129   65  131 1    
   130   66   67 am   BACKBONE|DICT|INTERRES
   131   66   68 2    
   132   67  132 1    
   133   67  133 1    
   134   69   70 1    
   135   69  134 1    
   136   69  135 1    
   137   70   71 1    
   138   71  136 1    
   139   71  137 1    
@<TRIPOS>SUBSTRUCTURE
     1 UNK         1 GROUP             0       ****    0 ROOT    
