@<TRIPOS>MOLECULE
3R137
137   139    1
SMALL
USER_CHARGES


@<TRIPOS>ATOM
      1 CA         31.5911    0.0991   -0.9394 C.3       0 UNK        -0.2020 
      2 C          30.4440   -0.8387   -0.6020 C.2       0 UNK         0.4855 
      3 O          29.9971   -0.8773    0.5440 O.2       0 UNK        -0.5197 
      4 N          29.9652   -1.5925   -1.6019 N.am      1 UNK        -0.4892 
      5 CA         28.8911   -2.5968   -1.4978 C.3       1 UNK         0.0835 
      6 C6         29.2400   -3.7415   -0.4982 C.3       12 UNK        -0.0855 
      7 S7         28.7394   -5.3964   -1.0843 S.3       12 UNK        -0.2931 
      8 C8         30.2307   -5.9329   -1.9873 C.3       12 UNK         0.0378 
      9 C9         30.4092   -5.1345   -3.2695 C.ar      12 UNK        -0.0802 
     10 C10        31.3394   -4.0918   -3.3356 C.ar      12 UNK        -0.0944 
     11 C11        31.4483   -3.3109   -4.4905 C.ar      12 UNK        -0.0787 
     12 C12        30.6289   -3.5966   -5.5871 C.ar      12 UNK        -0.0862 
     13 C13        29.7029   -4.6429   -5.5404 C.ar      12 UNK        -0.0733 
     14 C14        29.6086   -5.4166   -4.3797 C.ar      12 UNK        -0.0832 
     15 C15        28.8313   -4.9402   -6.7573 C.3       12 UNK         0.0240 
     16 S16        27.0717   -5.2305   -6.3620 S.3       12 UNK        -0.2522 
     17 C17        26.5423   -3.6163   -5.7001 C.3       12 UNK        -0.0967 
     18 CA         26.2504   -2.5829   -6.8258 C.3       5 UNK         0.0660 
     19 N          24.9094   -1.9992   -6.7367 N.am      5 UNK        -0.4015 
     20 C          24.3506   -1.2238   -7.6800 C.2       4 UNK         0.4946 
     21 O          24.8964   -0.9355   -8.7443 O.2       4 UNK        -0.5353 
     22 CA         22.9538   -0.6497   -7.3891 C.3       4 UNK         0.0277 
     23 CB         21.8669   -1.5567   -7.9878 C.3       4 UNK        -0.1981 
     24 N          22.6886   -0.4468   -5.9646 N.am      4 UNK        -0.4209 
     25 C          23.3601    0.3925   -5.1641 C.2       3 UNK         0.4942 
     26 O          24.2689    1.1302   -5.5562 O.2       3 UNK        -0.5208 
     27 CA         22.9501    0.3996   -3.6758 C.3       3 UNK         0.0250 
     28 CB         22.1132   -0.8300   -3.2506 C.3       3 UNK        -0.1990 
     29 N          24.0848    0.5538   -2.7589 N.am      3 UNK        -0.4232 
     30 C          25.2078   -0.1787   -2.7137 C.2       2 UNK         0.4993 
     31 O          25.5051   -1.0477   -3.5415 O.2       2 UNK        -0.5286 
     32 CA         26.1684    0.1683   -1.5580 C.3       2 UNK         0.0209 
     33 CB         25.4676    0.1498   -0.1804 C.3       2 UNK        -0.1931 
     34 N          27.3738   -0.6685   -1.5444 N.am      2 UNK        -0.4546 
     35 C          27.4865   -1.9809   -1.2852 C.2       1 UNK         0.5154 
     36 O          26.5509   -2.6940   -0.9180 O.2       1 UNK        -0.5181 
     37 C          27.3234   -1.4833   -6.8748 C.2       5 UNK         0.5014 
     38 O          28.1237   -1.4598   -7.8106 O.2       5 UNK        -0.5248 
     39 N          27.2877   -0.5661   -5.8964 N.am      6 UNK        -0.4434 
     40 CA         28.1913    0.5835   -5.8442 C.3       6 UNK         0.0363 
     41 CB         28.0968    1.2906   -4.4871 C.3       6 UNK        -0.1936 
     42 C          27.9717    1.5757   -6.9909 C.2       6 UNK         0.5081 
     43 O          28.9558    2.0893   -7.5210 O.2       6 UNK        -0.5248 
     44 N          26.7078    1.8027   -7.3775 N.am      7 UNK        -0.4718 
     45 CA         26.3433    2.6595   -8.5100 C.3       7 UNK         0.0273 
     46 CB         24.8172    2.8218   -8.5720 C.3       7 UNK        -0.1935 
     47 C          26.8915    2.1477   -9.8543 C.2       7 UNK         0.5018 
     48 O          27.3487    2.9564  -10.6629 O.2       7 UNK        -0.5186 
     49 N          26.8517    0.8239  -10.0611 N.am      8 UNK        -0.4240 
     50 CA         27.4126    0.1592  -11.2359 C.3       8 UNK         0.0235 
     51 CB         26.8118   -1.2499  -11.3702 C.3       8 UNK        -0.2000 
     52 C          28.9473    0.0913  -11.1974 C.2       8 UNK         0.4941 
     53 O          29.5875    0.4172  -12.1981 O.2       8 UNK        -0.5273 
     54 N          29.5086   -0.3611  -10.0671 N.am      9 UNK        -0.4262 
     55 CA         30.9392   -0.6400   -9.9266 C.3       9 UNK         0.0264 
     56 CB         31.1596   -1.5911   -8.7426 C.3       9 UNK        -0.1955 
     57 C          31.8144    0.6082   -9.7502 C.2       9 UNK         0.5031 
     58 O          32.9570    0.5884  -10.2104 O.2       9 UNK        -0.5390 
     59 N          31.2929    1.6363   -9.0607 N.am      10 UNK        -0.4204 
     60 CA         32.0090    2.8241   -8.5775 C.3       10 UNK         0.0237 
     61 CB         32.4575    3.7221   -9.7510 C.3       10 UNK        -0.1985 
     62 C          33.1596    2.4275   -7.6310 C.2       10 UNK         0.4970 
     63 O          34.3271    2.6646   -7.9483 O.2       10 UNK        -0.4914 
     64 N          32.7929    1.7791   -6.5142 N.am      11 UNK        -0.4285 
     65 CA         33.6944    1.2111   -5.4953 C.3       11 UNK         0.1007 
     66 C          34.7714    2.2063   -4.9761 C.2       11 UNK         0.5703 
     67 N          36.0045    1.7522   -4.7957 N.am      11 UNK        -0.7361 
     68 O          34.4833    3.3670   -4.6884 O.2       11 UNK        -0.4986 
     69 C69        32.9126    0.6306   -4.2851 C.3       12 UNK        -0.0947 
     70 S70        31.5959   -0.5568   -4.7125 S.3       12 UNK        -0.2240 
     71 C71        32.4447   -2.1589   -4.5524 C.3       12 UNK         0.0194 
     72 H72        32.3581   -0.4208   -1.5124 H         1 UNK         0.0906 
     73 H73        31.2314    0.9467   -1.5222 H         1 UNK         0.0906 
     74 H74        32.0555    0.4831   -0.0311 H         1 UNK         0.0906 
     75 H75        30.3775   -1.5042   -2.5224 H         1 UNK         0.3140 
     76 H76        28.8295   -3.0267   -2.4980 H         1 UNK         0.1085 
     77 H77        30.3145   -3.7735   -0.3120 H         1 UNK         0.0836 
     78 H78        28.7911   -3.5595    0.4802 H         1 UNK         0.0836 
     79 H79        31.1074   -5.8435   -1.3438 H         1 UNK         0.0731 
     80 H80        30.1368   -6.9927   -2.2290 H         1 UNK         0.0731 
     81 H81        31.9584   -3.8722   -2.4763 H         1 UNK         0.1312 
     82 H82        30.7099   -2.9943   -6.4779 H         1 UNK         0.1406 
     83 H83        28.8915   -6.2249   -4.3284 H         1 UNK         0.1631 
     84 H84        29.2250   -5.8288   -7.2521 H         1 UNK         0.0717 
     85 H85        28.8958   -4.1319   -7.4873 H         1 UNK         0.0717 
     86 H86        27.2797   -3.2646   -4.9745 H         1 UNK         0.0934 
     87 H87        25.6452   -3.8028   -5.1076 H         1 UNK         0.0934 
     88 H88        26.2856   -3.0901   -7.7929 H         1 UNK         0.0739 
     89 H89        24.4082   -2.1437   -5.8727 H         1 UNK         0.3093 
     90 H90        22.8883    0.3238   -7.8770 H         1 UNK         0.0818 
     91 H91        20.8748   -1.1206   -7.8690 H         1 UNK         0.0819 
     92 H92        22.0277   -1.7024   -9.0571 H         1 UNK         0.0819 
     93 H93        21.8598   -2.5433   -7.5226 H         1 UNK         0.0819 
     94 H94        21.9535   -1.0063   -5.5566 H         1 UNK         0.3041 
     95 H95        22.3288    1.2865   -3.5435 H         1 UNK         0.0784 
     96 H96        21.1647   -0.8802   -3.7867 H         1 UNK         0.0793 
     97 H97        22.6491   -1.7651   -3.4205 H         1 UNK         0.0793 
     98 H98        21.8663   -0.7853   -2.1896 H         1 UNK         0.0793 
     99 H99        23.9763    1.2865   -2.0720 H         1 UNK         0.3024 
    100 H100       26.5158    1.1866   -1.7409 H         1 UNK         0.1171 
    101 H101       26.1818    0.3045    0.6286 H         1 UNK         0.0786 
    102 H102       24.9563   -0.7958    0.0034 H         1 UNK         0.0786 
    103 H103       24.7218    0.9409   -0.0992 H         1 UNK         0.0786 
    104 H104       28.2240   -0.2041   -1.8269 H         1 UNK         0.2977 
    105 H105       26.5899   -0.6522   -5.1611 H         1 UNK         0.3127 
    106 H106       29.2053    0.2012   -5.9567 H         1 UNK         0.0770 
    107 H107       27.0814    1.6292   -4.2791 H         1 UNK         0.0814 
    108 H108       28.7466    2.1664   -4.4575 H         1 UNK         0.0814 
    109 H109       28.4180    0.6302   -3.6850 H         1 UNK         0.0814 
    110 H110       25.9498    1.3702   -6.8594 H         1 UNK         0.2983 
    111 H111       26.7828    3.6430   -8.3291 H         1 UNK         0.0947 
    112 H112       24.5342    3.5367   -9.3457 H         1 UNK         0.0806 
    113 H113       24.4147    3.1878   -7.6272 H         1 UNK         0.0806 
    114 H114       24.3240    1.8793   -8.8066 H         1 UNK         0.0806 
    115 H115       26.3983    0.2299   -9.3723 H         1 UNK         0.3000 
    116 H116       27.1267    0.7306  -12.1218 H         1 UNK         0.0850 
    117 H117       27.2152   -1.7670  -12.2418 H         1 UNK         0.0810 
    118 H118       25.7291   -1.2072  -11.4899 H         1 UNK         0.0810 
    119 H119       27.0241   -1.8659  -10.4950 H         1 UNK         0.0810 
    120 H120       28.9119   -0.6396   -9.2893 H         1 UNK         0.3040 
    121 H121       31.2746   -1.1519  -10.8314 H         1 UNK         0.0766 
    122 H122       32.2120   -1.8611   -8.6441 H         1 UNK         0.0812 
    123 H123       30.8521   -1.1286   -7.8039 H         1 UNK         0.0812 
    124 H124       30.5957   -2.5156   -8.8676 H         1 UNK         0.0812 
    125 H125       30.3400    1.5550   -8.7114 H         1 UNK         0.3205 
    126 H126       31.2977    3.3988   -7.9825 H         1 UNK         0.0754 
    127 H127       32.9120    4.6425   -9.3827 H         1 UNK         0.0769 
    128 H128       31.6106    4.0053  -10.3762 H         1 UNK         0.0769 
    129 H129       33.1934    3.2305  -10.3878 H         1 UNK         0.0769 
    130 H130       31.8094    1.6282   -6.3480 H         1 UNK         0.2981 
    131 H131       34.2119    0.3839   -5.9846 H         1 UNK         0.0541 
    132 H132       36.2483    0.7990   -5.0154 H         1 UNK         0.3459 
    133 H133       36.7099    2.3800   -4.4430 H         1 UNK         0.3459 
    134 H134       32.4381    1.4412   -3.7287 H         1 UNK         0.0612 
    135 H135       33.6007    0.1529   -3.5855 H         1 UNK         0.0612 
    136 H136       33.1135   -2.2974   -5.4029 H         1 UNK         0.0624 
    137 H137       33.0708   -2.1511   -3.6590 H         1 UNK         0.0624 
@<TRIPOS>BOND
     1    1    2 1    
     2    1   72 1    
     3    1   73 1    
     4    1   74 1    
     5    2    3 2    
     6    2    4 am   BACKBONE|DICT|INTERRES
     7    4    5 1    
     8    4   75 1    
     9    5    6 1    
    10    5   35 1    
    11    5   76 1    
    12    6    7 1    
    13    6   77 1    
    14    6   78 1    
    15    7    8 1    
    16    8    9 1    
    17    8   79 1    
    18    8   80 1    
    19    9   10 ar   
    20    9   14 ar   
    21   10   11 ar   
    22   10   81 1    
    23   11   12 ar   
    24   11   71 1    
    25   12   13 ar   
    26   12   82 1    
    27   13   14 ar   
    28   13   15 1    
    29   14   83 1    
    30   15   16 1    
    31   15   84 1    
    32   15   85 1    
    33   16   17 1    
    34   17   18 1    
    35   17   86 1    
    36   17   87 1    
    37   18   19 1    
    38   18   37 1    
    39   18   88 1    
    40   19   20 am   BACKBONE|DICT|INTERRES
    41   19   89 1    
    42   20   21 2    
    43   20   22 1    
    44   22   23 1    
    45   22   24 1    
    46   22   90 1    
    47   23   91 1    
    48   23   92 1    
    49   23   93 1    
    50   24   25 am   BACKBONE|DICT|INTERRES
    51   24   94 1    
    52   25   26 2    
    53   25   27 1    
    54   27   28 1    
    55   27   29 1    
    56   27   95 1    
    57   28   96 1    
    58   28   97 1    
    59   28   98 1    
    60   29   30 am   BACKBONE|DICT|INTERRES
    61   29   99 1    
    62   30   31 2    
    63   30   32 1    
    64   32   33 1    
    65   32   34 1    
    66   32  100 1    
    67   33  101 1    
    68   33  102 1    
    69   33  103 1    
    70   34   35 am   BACKBONE|DICT|INTERRES
    71   34  104 1    
    72   35   36 2    
    73   37   38 2    
    74   37   39 am   BACKBONE|DICT|INTERRES
    75   39   40 1    
    76   39  105 1    
    77   40   41 1    
    78   40   42 1    
    79   40  106 1    
    80   41  107 1    
    81   41  108 1    
    82   41  109 1    
    83   42   43 2    
    84   42   44 am   BACKBONE|DICT|INTERRES
    85   44   45 1    
    86   44  110 1    
    87   45   46 1    
    88   45   47 1    
    89   45  111 1    
    90   46  112 1    
    91   46  113 1    
    92   46  114 1    
    93   47   48 2    
    94   47   49 am   BACKBONE|DICT|INTERRES
    95   49   50 1    
    96   49  115 1    
    97   50   51 1    
    98   50   52 1    
    99   50  116 1    
   100   51  117 1    
   101   51  118 1    
   102   51  119 1    
   103   52   53 2    
   104   52   54 am   BACKBONE|DICT|INTERRES
   105   54   55 1    
   106   54  120 1    
   107   55   56 1    
   108   55   57 1    
   109   55  121 1    
   110   56  122 1    
   111   56  123 1    
   112   56  124 1    
   113   57   58 2    
   114   57   59 am   BACKBONE|DICT|INTERRES
   115   59   60 1    
   116   59  125 1    
   117   60   61 1    
   118   60   62 1    
   119   60  126 1    
   120   61  127 1    
   121   61  128 1    
   122   61  129 1    
   123   62   63 2    
   124   62   64 am   BACKBONE|DICT|INTERRES
   125   64   65 1    
   126   64  130 1    
   127   65   66 1    
   128   65   69 1    
   129   65  131 1    
   130   66   67 am   BACKBONE|DICT|INTERRES
   131   66   68 2    
   132   67  132 1    
   133   67  133 1    
   134   69   70 1    
   135   69  134 1    
   136   69  135 1    
   137   70   71 1    
   138   71  136 1    
   139   71  137 1    
@<TRIPOS>SUBSTRUCTURE
     1 UNK         1 GROUP             0       ****    0 ROOT    
