@<TRIPOS>MOLECULE
3R137
137   139    1
SMALL
USER_CHARGES


@<TRIPOS>ATOM
      1 CA         28.7997   -1.2918    3.6201 C.3       0 UNK        -0.2020 
      2 C          28.8018   -1.0855    2.1128 C.2       0 UNK         0.4855 
      3 O          29.3884   -0.1172    1.6294 O.2       0 UNK        -0.5197 
      4 N          28.1532   -1.9904    1.3671 N.am      1 UNK        -0.4892 
      5 CA         28.0264   -1.9360   -0.0952 C.3       1 UNK         0.0835 
      6 C6         27.5514   -3.3024   -0.6557 C.3       12 UNK        -0.0855 
      7 S7         27.7871   -3.4539   -2.4568 S.3       12 UNK        -0.2931 
      8 C8         29.3411   -4.3967   -2.5488 C.3       12 UNK         0.0378 
      9 C9         29.9605   -4.2423   -3.9276 C.ar      12 UNK        -0.0802 
     10 C10        31.0940   -3.4439   -4.1070 C.ar      12 UNK        -0.0944 
     11 C11        31.6228   -3.2451   -5.3844 C.ar      12 UNK        -0.0787 
     12 C12        30.9924   -3.8327   -6.4845 C.ar      12 UNK        -0.0862 
     13 C13        29.8491   -4.6227   -6.3259 C.ar      12 UNK        -0.0733 
     14 C14        29.3683   -4.8607   -5.0330 C.ar      12 UNK        -0.0832 
     15 C15        29.1781   -5.1863   -7.5811 C.3       12 UNK         0.0240 
     16 S16        27.4110   -5.6567   -7.4495 S.3       12 UNK        -0.2522 
     17 C17        26.5545   -4.2241   -6.7021 C.3       12 UNK        -0.0967 
     18 CA         26.3929   -2.9777   -7.6134 C.3       5 UNK         0.0660 
     19 N          25.1630   -2.2513   -7.2751 N.am      5 UNK        -0.4015 
     20 C          24.7415   -1.0954   -7.8077 C.2       4 UNK         0.4946 
     21 O          25.2921   -0.5320   -8.7517 O.2       4 UNK        -0.5353 
     22 CA         23.5223   -0.4225   -7.1509 C.3       4 UNK         0.0277 
     23 CB         22.2531   -0.6999   -7.9720 C.3       4 UNK        -0.1981 
     24 N          23.2906   -0.8028   -5.7509 N.am      4 UNK        -0.4209 
     25 C          24.1466   -0.6079   -4.7371 C.2       3 UNK         0.4942 
     26 O          25.2745   -0.1240   -4.8671 O.2       3 UNK        -0.5208 
     27 CA         23.6725   -1.0913   -3.3631 C.3       3 UNK         0.0250 
     28 CB         23.8319   -2.6179   -3.2365 C.3       3 UNK        -0.1990 
     29 N          24.4500   -0.4363   -2.3157 N.am      3 UNK        -0.4232 
     30 C          24.0014   -0.1297   -1.0936 C.2       2 UNK         0.4993 
     31 O          22.8522   -0.3604   -0.7110 O.2       2 UNK        -0.5286 
     32 CA         25.0247    0.4931   -0.1243 C.3       2 UNK         0.0209 
     33 CB         24.3793    1.0058    1.1773 C.3       2 UNK        -0.1931 
     34 N          26.0613   -0.4838    0.2153 N.am      2 UNK        -0.4546 
     35 C          27.1148   -0.7771   -0.5594 C.2       1 UNK         0.5154 
     36 O          27.3693   -0.1717   -1.6013 O.2       1 UNK        -0.5181 
     37 C          27.6326   -2.0636   -7.5204 C.2       5 UNK         0.5014 
     38 O          28.4007   -1.9684   -8.4794 O.2       5 UNK        -0.5248 
     39 N          27.7731   -1.3743   -6.3784 N.am      6 UNK        -0.4434 
     40 CA         28.8884   -0.4738   -6.0992 C.3       6 UNK         0.0363 
     41 CB         28.9150   -0.1340   -4.6026 C.3       6 UNK        -0.1936 
     42 C          28.8512    0.8033   -6.9485 C.2       6 UNK         0.5081 
     43 O          29.9087    1.3017   -7.3351 O.2       6 UNK        -0.5248 
     44 N          27.6400    1.2929   -7.2492 N.am      7 UNK        -0.4718 
     45 CA         27.4079    2.4319   -8.1388 C.3       7 UNK         0.0273 
     46 CB         25.9533    2.9105   -8.0079 C.3       7 UNK        -0.1935 
     47 C          27.7521    2.1030   -9.6005 C.2       7 UNK         0.5018 
     48 O          28.3977    2.9160  -10.2613 O.2       7 UNK        -0.5186 
     49 N          27.3493    0.9106  -10.0648 N.am      8 UNK        -0.4240 
     50 CA         27.6613    0.3792  -11.3939 C.3       8 UNK         0.0235 
     51 CB         26.8372   -0.8928  -11.6510 C.3       8 UNK        -0.2000 
     52 C          29.1614    0.1047  -11.5849 C.2       8 UNK         0.4941 
     53 O          29.7049    0.4359  -12.6393 O.2       8 UNK        -0.5273 
     54 N          29.8074   -0.4690  -10.5592 N.am      9 UNK        -0.4262 
     55 CA         31.2558   -0.6919  -10.5175 C.3       9 UNK         0.0264 
     56 CB         31.5794   -1.6700   -9.3797 C.3       9 UNK        -0.1955 
     57 C          32.0727    0.6029  -10.3532 C.2       9 UNK         0.5031 
     58 O          33.2413    0.6240  -10.7419 O.2       9 UNK        -0.5390 
     59 N          31.4517    1.6388   -9.7695 N.am      10 UNK        -0.4204 
     60 CA         32.0131    2.9457   -9.4126 C.3       10 UNK         0.0237 
     61 CB         32.4297    3.7364  -10.6713 C.3       10 UNK        -0.1985 
     62 C          33.1309    2.8456   -8.3555 C.2       10 UNK         0.4970 
     63 O          34.0790    3.6326   -8.3891 O.2       10 UNK        -0.4914 
     64 N          32.9978    1.8818   -7.4349 N.am      11 UNK        -0.4285 
     65 CA         33.9387    1.6413   -6.3294 C.3       11 UNK         0.1007 
     66 C          33.6914    2.5277   -5.0738 C.2       11 UNK         0.5703 
     67 N          32.5998    3.2807   -4.9950 N.am      11 UNK        -0.7361 
     68 O          34.5173    2.5483   -4.1639 O.2       11 UNK        -0.4986 
     69 C69        34.0466    0.1315   -5.9847 C.3       12 UNK        -0.0947 
     70 S70        32.4624   -0.6185   -5.4887 S.3       12 UNK        -0.2240 
     71 C71        32.8652   -2.3874   -5.5786 C.3       12 UNK         0.0194 
     72 H72        28.3363   -0.4384    4.1146 H         1 UNK         0.0906 
     73 H73        28.2532   -2.1891    3.9098 H         1 UNK         0.0906 
     74 H74        29.8214   -1.3844    3.9874 H         1 UNK         0.0906 
     75 H75        27.7004   -2.7711    1.8223 H         1 UNK         0.3140 
     76 H76        29.0222   -1.7336   -0.4972 H         1 UNK         0.1085 
     77 H77        28.0913   -4.1174   -0.1703 H         1 UNK         0.0836 
     78 H78        26.4969   -3.4712   -0.4283 H         1 UNK         0.0836 
     79 H79        29.1463   -5.4495   -2.3393 H         1 UNK         0.0731 
     80 H80        30.0307   -4.0443   -1.7799 H         1 UNK         0.0731 
     81 H81        31.5579   -2.9623   -3.2570 H         1 UNK         0.1312 
     82 H82        31.3911   -3.6679   -7.4742 H         1 UNK         0.1406 
     83 H83        28.5002   -5.4861   -4.8798 H         1 UNK         0.1631 
     84 H84        29.7365   -6.0695   -7.8934 H         1 UNK         0.0717 
     85 H85        29.2724   -4.4710   -8.3990 H         1 UNK         0.0717 
     86 H86        25.5661   -4.6120   -6.4497 H         1 UNK         0.0934 
     87 H87        26.9893   -3.9656   -5.7366 H         1 UNK         0.0934 
     88 H88        26.2907   -3.3017   -8.6511 H         1 UNK         0.0739 
     89 H89        24.6198   -2.6292   -6.5143 H         1 UNK         0.3093 
     90 H90        23.7072    0.6532   -7.1647 H         1 UNK         0.0818 
     91 H91        21.3996   -0.1418   -7.5867 H         1 UNK         0.0819 
     92 H92        22.3885   -0.4003   -9.0125 H         1 UNK         0.0819 
     93 H93        21.9927   -1.7591   -7.9699 H         1 UNK         0.0819 
     94 H94        22.3923   -1.2178   -5.5462 H         1 UNK         0.3041 
     95 H95        22.6190   -0.8231   -3.2562 H         1 UNK         0.0784 
     96 H96        23.2443   -3.1437   -3.9897 H         1 UNK         0.0793 
     97 H97        24.8718   -2.9243   -3.3575 H         1 UNK         0.0793 
     98 H98        23.4938   -2.9714   -2.2622 H         1 UNK         0.0793 
     99 H99        25.4078   -0.2078   -2.5668 H         1 UNK         0.3024 
    100 H100       25.4801    1.3480   -0.6303 H         1 UNK         0.1171 
    101 H101       25.1160    1.4865    1.8213 H         1 UNK         0.0786 
    102 H102       23.6058    1.7448    0.9640 H         1 UNK         0.0786 
    103 H103       23.9131    0.1996    1.7453 H         1 UNK         0.0786 
    104 H104       25.9152   -1.0310    1.0511 H         1 UNK         0.2977 
    105 H105       27.0578   -1.4387   -5.6660 H         1 UNK         0.3127 
    106 H106       29.8044   -1.0088   -6.3493 H         1 UNK         0.0770 
    107 H107       27.9984    0.3636   -4.2835 H         1 UNK         0.0814 
    108 H108       29.7472    0.5306   -4.3676 H         1 UNK         0.0814 
    109 H109       29.0385   -1.0312   -3.9957 H         1 UNK         0.0814 
    110 H110       26.8272    0.8127   -6.8880 H         1 UNK         0.2983 
    111 H111       28.0631    3.2453   -7.8184 H         1 UNK         0.0947 
    112 H112       25.7863    3.8070   -8.6065 H         1 UNK         0.0806 
    113 H113       25.7072    3.1598   -6.9756 H         1 UNK         0.0806 
    114 H114       25.2444    2.1572   -8.3508 H         1 UNK         0.0806 
    115 H115       26.7645    0.3266   -9.4689 H         1 UNK         0.3000 
    116 H116       27.3662    1.1308  -12.1291 H         1 UNK         0.0850 
    117 H117       27.0449   -1.3009  -12.6410 H         1 UNK         0.0810 
    118 H118       25.7678   -0.6871  -11.6017 H         1 UNK         0.0810 
    119 H119       27.0592   -1.6724  -10.9212 H         1 UNK         0.0810 
    120 H120       29.2690   -0.7932   -9.7584 H         1 UNK         0.3040 
    121 H121       31.5572   -1.1528  -11.4605 H         1 UNK         0.0766 
    122 H122       31.2668   -1.2773   -8.4112 H         1 UNK         0.0812 
    123 H123       32.6503   -1.8698   -9.3225 H         1 UNK         0.0812 
    124 H124       31.0763   -2.6243   -9.5349 H         1 UNK         0.0812 
    125 H125       30.5128    1.4779   -9.4242 H         1 UNK         0.3205 
    126 H126       31.2002    3.4956   -8.9360 H         1 UNK         0.0754 
    127 H127       32.7067    4.7600  -10.4165 H         1 UNK         0.0769 
    128 H128       31.6117    3.7924  -11.3898 H         1 UNK         0.0769 
    129 H129       33.2860    3.2829  -11.1712 H         1 UNK         0.0769 
    130 H130       32.1532    1.3227   -7.4313 H         1 UNK         0.2981 
    131 H131       34.9306    1.9338   -6.6791 H         1 UNK         0.0541 
    132 H132       31.9114    3.2573   -5.7299 H         1 UNK         0.3459 
    133 H133       32.4544    3.8567   -4.1813 H         1 UNK         0.3459 
    134 H134       34.7780   -0.0358   -5.1920 H         1 UNK         0.0612 
    135 H135       34.4221   -0.4072   -6.8561 H         1 UNK         0.0612 
    136 H136       33.3283   -2.6043   -6.5425 H         1 UNK         0.0624 
    137 H137       33.6060   -2.6283   -4.8149 H         1 UNK         0.0624 
@<TRIPOS>BOND
     1    1    2 1    
     2    1   72 1    
     3    1   73 1    
     4    1   74 1    
     5    2    3 2    
     6    2    4 am   BACKBONE|DICT|INTERRES
     7    4    5 1    
     8    4   75 1    
     9    5    6 1    
    10    5   35 1    
    11    5   76 1    
    12    6    7 1    
    13    6   77 1    
    14    6   78 1    
    15    7    8 1    
    16    8    9 1    
    17    8   79 1    
    18    8   80 1    
    19    9   10 ar   
    20    9   14 ar   
    21   10   11 ar   
    22   10   81 1    
    23   11   12 ar   
    24   11   71 1    
    25   12   13 ar   
    26   12   82 1    
    27   13   14 ar   
    28   13   15 1    
    29   14   83 1    
    30   15   16 1    
    31   15   84 1    
    32   15   85 1    
    33   16   17 1    
    34   17   18 1    
    35   17   86 1    
    36   17   87 1    
    37   18   19 1    
    38   18   37 1    
    39   18   88 1    
    40   19   20 am   BACKBONE|DICT|INTERRES
    41   19   89 1    
    42   20   21 2    
    43   20   22 1    
    44   22   23 1    
    45   22   24 1    
    46   22   90 1    
    47   23   91 1    
    48   23   92 1    
    49   23   93 1    
    50   24   25 am   BACKBONE|DICT|INTERRES
    51   24   94 1    
    52   25   26 2    
    53   25   27 1    
    54   27   28 1    
    55   27   29 1    
    56   27   95 1    
    57   28   96 1    
    58   28   97 1    
    59   28   98 1    
    60   29   30 am   BACKBONE|DICT|INTERRES
    61   29   99 1    
    62   30   31 2    
    63   30   32 1    
    64   32   33 1    
    65   32   34 1    
    66   32  100 1    
    67   33  101 1    
    68   33  102 1    
    69   33  103 1    
    70   34   35 am   BACKBONE|DICT|INTERRES
    71   34  104 1    
    72   35   36 2    
    73   37   38 2    
    74   37   39 am   BACKBONE|DICT|INTERRES
    75   39   40 1    
    76   39  105 1    
    77   40   41 1    
    78   40   42 1    
    79   40  106 1    
    80   41  107 1    
    81   41  108 1    
    82   41  109 1    
    83   42   43 2    
    84   42   44 am   BACKBONE|DICT|INTERRES
    85   44   45 1    
    86   44  110 1    
    87   45   46 1    
    88   45   47 1    
    89   45  111 1    
    90   46  112 1    
    91   46  113 1    
    92   46  114 1    
    93   47   48 2    
    94   47   49 am   BACKBONE|DICT|INTERRES
    95   49   50 1    
    96   49  115 1    
    97   50   51 1    
    98   50   52 1    
    99   50  116 1    
   100   51  117 1    
   101   51  118 1    
   102   51  119 1    
   103   52   53 2    
   104   52   54 am   BACKBONE|DICT|INTERRES
   105   54   55 1    
   106   54  120 1    
   107   55   56 1    
   108   55   57 1    
   109   55  121 1    
   110   56  122 1    
   111   56  123 1    
   112   56  124 1    
   113   57   58 2    
   114   57   59 am   BACKBONE|DICT|INTERRES
   115   59   60 1    
   116   59  125 1    
   117   60   61 1    
   118   60   62 1    
   119   60  126 1    
   120   61  127 1    
   121   61  128 1    
   122   61  129 1    
   123   62   63 2    
   124   62   64 am   BACKBONE|DICT|INTERRES
   125   64   65 1    
   126   64  130 1    
   127   65   66 1    
   128   65   69 1    
   129   65  131 1    
   130   66   67 am   BACKBONE|DICT|INTERRES
   131   66   68 2    
   132   67  132 1    
   133   67  133 1    
   134   69   70 1    
   135   69  134 1    
   136   69  135 1    
   137   70   71 1    
   138   71  136 1    
   139   71  137 1    
@<TRIPOS>SUBSTRUCTURE
     1 UNK         1 GROUP             0       ****    0 ROOT    
