@<TRIPOS>MOLECULE
3R137
137   139    1
SMALL
USER_CHARGES


@<TRIPOS>ATOM
      1 CA         29.4241   -5.2372   -9.5929 C.3       0 UNK        -0.2020 
      2 C          29.0989   -4.3587   -8.3953 C.2       0 UNK         0.4855 
      3 O          29.3513   -3.1541   -8.4445 O.2       0 UNK        -0.5197 
      4 N          28.5425   -4.9550   -7.3310 N.am      1 UNK        -0.4892 
      5 CA         28.1293   -4.3044   -6.0742 C.3       1 UNK         0.0835 
      6 C6         29.3056   -3.6709   -5.2797 C.3       12 UNK        -0.0855 
      7 S7         30.6259   -4.8682   -4.8868 S.3       12 UNK        -0.2931 
      8 C8         30.6623   -4.8149   -3.0654 C.3       12 UNK         0.0378 
      9 C9         31.0553   -3.4493   -2.5087 C.ar      12 UNK        -0.0802 
     10 C10        32.2297   -2.8140   -2.9286 C.ar      12 UNK        -0.0944 
     11 C11        32.6047   -1.5795   -2.3883 C.ar      12 UNK        -0.0787 
     12 C12        31.7972   -0.9823   -1.4152 C.ar      12 UNK        -0.0862 
     13 C13        30.6207   -1.6039   -0.9883 C.ar      12 UNK        -0.0733 
     14 C14        30.2563   -2.8368   -1.5379 C.ar      12 UNK        -0.0832 
     15 C15        29.7657   -0.9672    0.0985 C.3       12 UNK         0.0240 
     16 S16        28.1194   -0.4776   -0.5045 S.3       12 UNK        -0.2522 
     17 C17        28.4924    0.9929   -1.5231 C.3       12 UNK        -0.0967 
     18 CA         27.7450    0.9829   -2.8811 C.3       5 UNK         0.0660 
     19 N          26.3021    0.7533   -2.7103 N.am      5 UNK        -0.4015 
     20 C          25.4025    0.6242   -3.6930 C.2       4 UNK         0.4946 
     21 O          25.6500    0.7962   -4.8889 O.2       4 UNK        -0.5353 
     22 CA         23.9678    0.3097   -3.2657 C.3       4 UNK         0.0277 
     23 CB         23.2056    1.6031   -2.9208 C.3       4 UNK        -0.1981 
     24 N          23.3208   -0.3765   -4.3762 N.am      4 UNK        -0.4209 
     25 C          22.2305   -1.1472   -4.3042 C.2       3 UNK         0.4942 
     26 O          21.6002   -1.3475   -3.2649 O.2       3 UNK        -0.5208 
     27 CA         21.7520   -1.8053   -5.6113 C.3       3 UNK         0.0250 
     28 CB         20.6283   -0.9710   -6.2485 C.3       3 UNK        -0.1990 
     29 N          22.8248   -1.9946   -6.5931 N.am      3 UNK        -0.4232 
     30 C          23.7924   -2.9174   -6.4979 C.2       2 UNK         0.4993 
     31 O          23.8447   -3.7546   -5.5931 O.2       2 UNK        -0.5286 
     32 CA         24.8445   -2.9325   -7.6275 C.3       2 UNK         0.0209 
     33 CB         25.1701   -1.5240   -8.1727 C.3       2 UNK        -0.1931 
     34 N          26.0777   -3.6407   -7.2551 N.am      2 UNK        -0.4546 
     35 C          26.9446   -3.3275   -6.2768 C.2       1 UNK         0.5154 
     36 O          26.8349   -2.3365   -5.5539 O.2       1 UNK        -0.5181 
     37 C          28.0795    2.2606   -3.6838 C.2       5 UNK         0.5014 
     38 O          29.1035    2.2974   -4.3641 O.2       5 UNK        -0.5248 
     39 N          27.2052    3.2753   -3.6151 N.am      6 UNK        -0.4434 
     40 CA         27.3040    4.5175   -4.3862 C.3       6 UNK         0.0363 
     41 CB         26.3635    5.5646   -3.7674 C.3       6 UNK        -0.1936 
     42 C          26.9962    4.3442   -5.8873 C.2       6 UNK         0.5081 
     43 O          27.4108    5.1900   -6.6801 O.2       6 UNK        -0.5248 
     44 N          26.2759    3.2755   -6.2543 N.am      7 UNK        -0.4718 
     45 CA         25.8925    2.9448   -7.6302 C.3       7 UNK         0.0273 
     46 CB         24.3998    2.5660   -7.6394 C.3       7 UNK        -0.1935 
     47 C          26.7455    1.8034   -8.2157 C.2       7 UNK         0.5018 
     48 O          26.4850    1.3856   -9.3451 O.2       7 UNK        -0.5186 
     49 N          27.7151    1.2990   -7.4398 N.am      8 UNK        -0.4240 
     50 CA         28.5823    0.1687   -7.7696 C.3       8 UNK         0.0235 
     51 CB         29.5053   -0.1062   -6.5763 C.3       8 UNK        -0.2000 
     52 C          29.4342    0.3847   -9.0286 C.2       8 UNK         0.4941 
     53 O          29.9213    1.4919   -9.2675 O.2       8 UNK        -0.5273 
     54 N          29.6592   -0.7124   -9.7574 N.am      9 UNK        -0.4262 
     55 CA         30.6614   -0.8190  -10.8160 C.3       9 UNK         0.0264 
     56 CB         30.1735   -1.8168  -11.8786 C.3       9 UNK        -0.1955 
     57 C          32.0149   -1.2658  -10.2384 C.2       9 UNK         0.5031 
     58 O          33.0549   -0.8520  -10.7505 O.2       9 UNK        -0.5390 
     59 N          31.9817   -2.0817   -9.1740 N.am      10 UNK        -0.4204 
     60 CA         33.1529   -2.6093   -8.4677 C.3       10 UNK         0.0237 
     61 CB         32.8657   -4.0638   -8.0534 C.3       10 UNK        -0.1985 
     62 C          33.5734   -1.7389   -7.2651 C.2       10 UNK         0.4970 
     63 O          34.2197   -2.2492   -6.3489 O.2       10 UNK        -0.4914 
     64 N          33.2196   -0.4494   -7.2809 N.am      11 UNK        -0.4285 
     65 CA         33.5930    0.5466   -6.2709 C.3       11 UNK         0.1007 
     66 C          33.6589    1.9700   -6.8882 C.2       11 UNK         0.5703 
     67 N          33.9966    2.9780   -6.0963 N.am      11 UNK        -0.7361 
     68 O          33.4213    2.1708   -8.0783 O.2       11 UNK        -0.4986 
     69 C69        32.7030    0.4580   -4.9963 C.3       12 UNK        -0.0947 
     70 S70        33.6407    0.7797   -3.4672 S.3       12 UNK        -0.2240 
     71 C71        33.8991   -0.9093   -2.8345 C.3       12 UNK         0.0194 
     72 H72        30.4485   -5.0652   -9.9203 H         1 UNK         0.0906 
     73 H73        29.3172   -6.2969   -9.3628 H         1 UNK         0.0906 
     74 H74        28.7588   -4.9985  -10.4220 H         1 UNK         0.0906 
     75 H75        28.3856   -5.9532   -7.3612 H         1 UNK         0.3140 
     76 H76        27.7218   -5.1006   -5.4489 H         1 UNK         0.1085 
     77 H77        29.7558   -2.8575   -5.8440 H         1 UNK         0.0836 
     78 H78        28.9430   -3.2248   -4.3519 H         1 UNK         0.0836 
     79 H79        31.3794   -5.5554   -2.7088 H         1 UNK         0.0731 
     80 H80        29.6868   -5.1257   -2.6879 H         1 UNK         0.0731 
     81 H81        32.8536   -3.2854   -3.6763 H         1 UNK         0.1312 
     82 H82        32.0922   -0.0335   -0.9880 H         1 UNK         0.1406 
     83 H83        29.3509   -3.3213   -1.1976 H         1 UNK         0.1631 
     84 H84        30.2623   -0.0986    0.5342 H         1 UNK         0.0717 
     85 H85        29.6399   -1.6840    0.9112 H         1 UNK         0.0717 
     86 H86        28.2289    1.8787   -0.9416 H         1 UNK         0.0934 
     87 H87        29.5697    1.0509   -1.6923 H         1 UNK         0.0934 
     88 H88        28.1226    0.1397   -3.4635 H         1 UNK         0.0739 
     89 H89        26.0051    0.5961   -1.7578 H         1 UNK         0.3093 
     90 H90        23.9920   -0.3548   -2.3992 H         1 UNK         0.0818 
     91 H91        23.6833    2.1346   -2.0970 H         1 UNK         0.0819 
     92 H92        23.1653    2.2844   -3.7719 H         1 UNK         0.0819 
     93 H93        22.1809    1.3921   -2.6145 H         1 UNK         0.0819 
     94 H94        23.8248   -0.2951   -5.2508 H         1 UNK         0.3041 
     95 H95        21.3451   -2.7859   -5.3544 H         1 UNK         0.0784 
     96 H96        20.2250   -1.4590   -7.1361 H         1 UNK         0.0793 
     97 H97        20.9751    0.0221   -6.5375 H         1 UNK         0.0793 
     98 H98        19.8000   -0.8361   -5.5513 H         1 UNK         0.0793 
     99 H99        22.8351   -1.3623   -7.3802 H         1 UNK         0.3024 
    100 H100       24.4005   -3.5087   -8.4410 H         1 UNK         0.1171 
    101 H101       24.3076   -1.0636   -8.6551 H         1 UNK         0.0786 
    102 H102       25.5014   -0.8520   -7.3797 H         1 UNK         0.0786 
    103 H103       25.9575   -1.5663   -8.9252 H         1 UNK         0.0786 
    104 H104       26.2601   -4.4912   -7.7685 H         1 UNK         0.2977 
    105 H105       26.3894    3.1662   -3.0309 H         1 UNK         0.3127 
    106 H106       28.3284    4.8880   -4.3051 H         1 UNK         0.0770 
    107 H107       26.4361    6.5155   -4.2973 H         1 UNK         0.0814 
    108 H108       26.6147    5.7583   -2.7244 H         1 UNK         0.0814 
    109 H109       25.3208    5.2473   -3.8107 H         1 UNK         0.0814 
    110 H110       26.0154    2.5841   -5.5555 H         1 UNK         0.2983 
    111 H111       26.0282    3.8111   -8.2811 H         1 UNK         0.0947 
    112 H112       24.0521    2.3621   -8.6530 H         1 UNK         0.0806 
    113 H113       23.7836    3.3735   -7.2439 H         1 UNK         0.0806 
    114 H114       24.2063    1.6737   -7.0432 H         1 UNK         0.0806 
    115 H115       27.8550    1.7202   -6.5325 H         1 UNK         0.3000 
    116 H116       27.9468   -0.7047   -7.9212 H         1 UNK         0.0850 
    117 H117       28.9406   -0.4240   -5.7002 H         1 UNK         0.0810 
    118 H118       30.0698    0.7865   -6.3131 H         1 UNK         0.0810 
    119 H119       30.2296   -0.8877   -6.8049 H         1 UNK         0.0810 
    120 H120       29.2669   -1.5910   -9.4237 H         1 UNK         0.3040 
    121 H121       30.7988    0.1533  -11.2942 H         1 UNK         0.0766 
    122 H122       29.2313   -1.4932  -12.3212 H         1 UNK         0.0812 
    123 H123       30.0227   -2.8131  -11.4616 H         1 UNK         0.0812 
    124 H124       30.8980   -1.9078  -12.6890 H         1 UNK         0.0812 
    125 H125       31.0759   -2.3780   -8.8197 H         1 UNK         0.3205 
    126 H126       34.0067   -2.6264   -9.1480 H         1 UNK         0.0754 
    127 H127       32.0242   -4.1229   -7.3639 H         1 UNK         0.0769 
    128 H128       33.7264   -4.5156   -7.5586 H         1 UNK         0.0769 
    129 H129       32.6367   -4.6839   -8.9195 H         1 UNK         0.0769 
    130 H130       32.7598   -0.0682   -8.0969 H         1 UNK         0.2981 
    131 H131       34.6255    0.3189   -5.9980 H         1 UNK         0.0541 
    132 H132       34.1806    2.8194   -5.1171 H         1 UNK         0.3459 
    133 H133       34.0502    3.9093   -6.4776 H         1 UNK         0.3459 
    134 H134       31.8778    1.1697   -5.0362 H         1 UNK         0.0612 
    135 H135       32.2333   -0.5232   -4.9163 H         1 UNK         0.0612 
    136 H136       34.4007   -1.4987   -3.6038 H         1 UNK         0.0624 
    137 H137       34.5818   -0.8643   -1.9853 H         1 UNK         0.0624 
@<TRIPOS>BOND
     1    1    2 1    
     2    1   72 1    
     3    1   73 1    
     4    1   74 1    
     5    2    3 2    
     6    2    4 am   BACKBONE|DICT|INTERRES
     7    4    5 1    
     8    4   75 1    
     9    5    6 1    
    10    5   35 1    
    11    5   76 1    
    12    6    7 1    
    13    6   77 1    
    14    6   78 1    
    15    7    8 1    
    16    8    9 1    
    17    8   79 1    
    18    8   80 1    
    19    9   10 ar   
    20    9   14 ar   
    21   10   11 ar   
    22   10   81 1    
    23   11   12 ar   
    24   11   71 1    
    25   12   13 ar   
    26   12   82 1    
    27   13   14 ar   
    28   13   15 1    
    29   14   83 1    
    30   15   16 1    
    31   15   84 1    
    32   15   85 1    
    33   16   17 1    
    34   17   18 1    
    35   17   86 1    
    36   17   87 1    
    37   18   19 1    
    38   18   37 1    
    39   18   88 1    
    40   19   20 am   BACKBONE|DICT|INTERRES
    41   19   89 1    
    42   20   21 2    
    43   20   22 1    
    44   22   23 1    
    45   22   24 1    
    46   22   90 1    
    47   23   91 1    
    48   23   92 1    
    49   23   93 1    
    50   24   25 am   BACKBONE|DICT|INTERRES
    51   24   94 1    
    52   25   26 2    
    53   25   27 1    
    54   27   28 1    
    55   27   29 1    
    56   27   95 1    
    57   28   96 1    
    58   28   97 1    
    59   28   98 1    
    60   29   30 am   BACKBONE|DICT|INTERRES
    61   29   99 1    
    62   30   31 2    
    63   30   32 1    
    64   32   33 1    
    65   32   34 1    
    66   32  100 1    
    67   33  101 1    
    68   33  102 1    
    69   33  103 1    
    70   34   35 am   BACKBONE|DICT|INTERRES
    71   34  104 1    
    72   35   36 2    
    73   37   38 2    
    74   37   39 am   BACKBONE|DICT|INTERRES
    75   39   40 1    
    76   39  105 1    
    77   40   41 1    
    78   40   42 1    
    79   40  106 1    
    80   41  107 1    
    81   41  108 1    
    82   41  109 1    
    83   42   43 2    
    84   42   44 am   BACKBONE|DICT|INTERRES
    85   44   45 1    
    86   44  110 1    
    87   45   46 1    
    88   45   47 1    
    89   45  111 1    
    90   46  112 1    
    91   46  113 1    
    92   46  114 1    
    93   47   48 2    
    94   47   49 am   BACKBONE|DICT|INTERRES
    95   49   50 1    
    96   49  115 1    
    97   50   51 1    
    98   50   52 1    
    99   50  116 1    
   100   51  117 1    
   101   51  118 1    
   102   51  119 1    
   103   52   53 2    
   104   52   54 am   BACKBONE|DICT|INTERRES
   105   54   55 1    
   106   54  120 1    
   107   55   56 1    
   108   55   57 1    
   109   55  121 1    
   110   56  122 1    
   111   56  123 1    
   112   56  124 1    
   113   57   58 2    
   114   57   59 am   BACKBONE|DICT|INTERRES
   115   59   60 1    
   116   59  125 1    
   117   60   61 1    
   118   60   62 1    
   119   60  126 1    
   120   61  127 1    
   121   61  128 1    
   122   61  129 1    
   123   62   63 2    
   124   62   64 am   BACKBONE|DICT|INTERRES
   125   64   65 1    
   126   64  130 1    
   127   65   66 1    
   128   65   69 1    
   129   65  131 1    
   130   66   67 am   BACKBONE|DICT|INTERRES
   131   66   68 2    
   132   67  132 1    
   133   67  133 1    
   134   69   70 1    
   135   69  134 1    
   136   69  135 1    
   137   70   71 1    
   138   71  136 1    
   139   71  137 1    
@<TRIPOS>SUBSTRUCTURE
     1 UNK         1 GROUP             0       ****    0 ROOT    
