@<TRIPOS>MOLECULE
3R137
137   139    1
SMALL
USER_CHARGES


@<TRIPOS>ATOM
      1 CA         24.5158   -5.6857   -5.8846 C.3       0 UNK        -0.2020 
      2 C          24.7751   -5.1001   -4.5055 C.2       0 UNK         0.4855 
      3 O          23.8854   -4.4716   -3.9315 O.2       0 UNK        -0.5197 
      4 N          25.9869   -5.2926   -3.9685 N.am      1 UNK        -0.4892 
      5 CA         26.4160   -4.7881   -2.6601 C.3       1 UNK         0.0835 
      6 C6         27.7827   -5.3701   -2.2167 C.3       12 UNK        -0.0855 
      7 S7         29.1186   -5.2379   -3.4614 S.3       12 UNK        -0.2931 
      8 C8         30.5916   -5.0648   -2.4038 C.3       12 UNK         0.0378 
      9 C9         31.2518   -3.7054   -2.5789 C.ar      12 UNK        -0.0802 
     10 C10        32.3797   -3.5791   -3.3939 C.ar      12 UNK        -0.0944 
     11 C11        33.0165   -2.3450   -3.5568 C.ar      12 UNK        -0.0787 
     12 C12        32.5179   -1.2311   -2.8692 C.ar      12 UNK        -0.0862 
     13 C13        31.3848   -1.3395   -2.0575 C.ar      12 UNK        -0.0733 
     14 C14        30.7536   -2.5801   -1.9160 C.ar      12 UNK        -0.0832 
     15 C15        30.8611   -0.1145   -1.3200 C.3       12 UNK         0.0240 
     16 S16        30.2353    1.1653   -2.4569 S.3       12 UNK        -0.2522 
     17 C17        28.7227    0.3804   -3.1011 C.3       12 UNK        -0.0967 
     18 CA         28.5467    0.5768   -4.6282 C.3       5 UNK         0.0660 
     19 N          27.6800   -0.4530   -5.2006 N.am      5 UNK        -0.4015 
     20 C          27.4339   -0.6324   -6.5046 C.2       4 UNK         0.4946 
     21 O          28.0165   -0.0331   -7.4090 O.2       4 UNK        -0.5353 
     22 CA         26.3280   -1.6348   -6.8661 C.3       4 UNK         0.0277 
     23 CB         26.9031   -3.0516   -7.0113 C.3       4 UNK        -0.1981 
     24 N          25.2306   -1.6269   -5.8937 N.am      4 UNK        -0.4209 
     25 C          24.3711   -0.6077   -5.7426 C.2       3 UNK         0.4942 
     26 O          24.3865    0.4078   -6.4364 O.2       3 UNK        -0.5208 
     27 CA         23.3559   -0.7152   -4.5941 C.3       3 UNK         0.0250 
     28 CB         22.1618   -1.5941   -4.9978 C.3       3 UNK        -0.1990 
     29 N          23.9635   -1.2229   -3.3615 N.am      3 UNK        -0.4232 
     30 C          24.8617   -0.5375   -2.6373 C.2       2 UNK         0.4993 
     31 O          25.2357    0.6007   -2.9165 O.2       2 UNK        -0.5286 
     32 CA         25.4949   -1.2491   -1.4282 C.3       2 UNK         0.0209 
     33 CB         24.6603   -1.0010   -0.1620 C.3       2 UNK        -0.1931 
     34 N          25.6870   -2.6909   -1.6146 N.am      2 UNK        -0.4546 
     35 C          26.3895   -3.2475   -2.6115 C.2       1 UNK         0.5154 
     36 O          26.9623   -2.5945   -3.4862 O.2       1 UNK        -0.5181 
     37 C          28.0305    1.9905   -4.9723 C.2       5 UNK         0.5014 
     38 O          28.7744    2.7834   -5.5505 O.2       5 UNK        -0.5248 
     39 N          26.7559    2.2663   -4.6506 N.am      6 UNK        -0.4434 
     40 CA         26.0789    3.5428   -4.9053 C.3       6 UNK         0.0363 
     41 CB         24.6852    3.5253   -4.2582 C.3       6 UNK        -0.1936 
     42 C          25.9728    3.8995   -6.3973 C.2       6 UNK         0.5081 
     43 O          26.1390    5.0666   -6.7525 O.2       6 UNK        -0.5248 
     44 N          25.7257    2.8926   -7.2456 N.am      7 UNK        -0.4718 
     45 CA         25.6965    3.0243   -8.7052 C.3       7 UNK         0.0273 
     46 CB         24.9903    1.7943   -9.3003 C.3       7 UNK        -0.1935 
     47 C          27.0882    3.1913   -9.3446 C.2       7 UNK         0.5018 
     48 O          27.1556    3.5235  -10.5287 O.2       7 UNK        -0.5186 
     49 N          28.1587    2.9240   -8.5786 N.am      8 UNK        -0.4240 
     50 CA         29.5620    2.8417   -9.0037 C.3       8 UNK         0.0235 
     51 CB         30.0922    4.2185   -9.4572 C.3       8 UNK        -0.2000 
     52 C          29.8051    1.7250  -10.0401 C.2       8 UNK         0.4941 
     53 O          30.6808    1.8546  -10.8974 O.2       8 UNK        -0.5273 
     54 N          29.0210    0.6442   -9.9363 N.am      9 UNK        -0.4262 
     55 CA         29.1691   -0.5828  -10.7146 C.3       9 UNK         0.0264 
     56 CB         27.8058   -1.2846  -10.8265 C.3       9 UNK        -0.1955 
     57 C          30.2103   -1.5073  -10.0681 C.2       9 UNK         0.5031 
     58 O          30.9722   -2.1552  -10.7872 O.2       9 UNK        -0.5390 
     59 N          30.2423   -1.5311   -8.7286 N.am      10 UNK        -0.4204 
     60 CA         31.2984   -2.1627   -7.9444 C.3       10 UNK         0.0237 
     61 CB         30.7271   -2.6342   -6.5967 C.3       10 UNK        -0.1985 
     62 C          32.4272   -1.1439   -7.7354 C.2       10 UNK         0.4970 
     63 O          32.1402   -0.0235   -7.3073 O.2       10 UNK        -0.4914 
     64 N          33.6663   -1.5672   -8.0290 N.am      11 UNK        -0.4285 
     65 CA         34.9294   -0.8121   -7.9108 C.3       11 UNK         0.1007 
     66 C          34.8733    0.6589   -8.4281 C.2       11 UNK         0.5703 
     67 N          35.3770    1.6363   -7.6854 N.am      11 UNK        -0.7361 
     68 O          34.4290    0.9060   -9.5473 O.2       11 UNK        -0.4986 
     69 C69        35.6606   -1.0393   -6.5510 C.3       12 UNK        -0.0947 
     70 S70        34.6867   -0.6095   -5.0687 S.3       12 UNK        -0.2240 
     71 C71        34.2367   -2.2776   -4.4756 C.3       12 UNK         0.0194 
     72 H72        23.7923   -6.4974   -5.8148 H         1 UNK         0.0906 
     73 H73        24.1062   -4.9231   -6.5464 H         1 UNK         0.0906 
     74 H74        25.4257   -6.0781   -6.3385 H         1 UNK         0.0906 
     75 H75        26.7039   -5.7750   -4.4925 H         1 UNK         0.3140 
     76 H76        25.6752   -5.1465   -1.9416 H         1 UNK         0.1085 
     77 H77        27.6615   -6.4298   -1.9864 H         1 UNK         0.0836 
     78 H78        28.0963   -4.9052   -1.2801 H         1 UNK         0.0836 
     79 H79        31.2935   -5.8594   -2.6617 H         1 UNK         0.0731 
     80 H80        30.3450   -5.2227   -1.3533 H         1 UNK         0.0731 
     81 H81        32.7624   -4.4488   -3.9108 H         1 UNK         0.1312 
     82 H82        32.9973   -0.2673   -2.9641 H         1 UNK         0.1406 
     83 H83        29.8776   -2.6746   -1.2888 H         1 UNK         0.1631 
     84 H84        31.6696    0.3117   -0.7243 H         1 UNK         0.0717 
     85 H85        30.0731   -0.3856   -0.6156 H         1 UNK         0.0717 
     86 H86        28.7709   -0.6856   -2.8764 H         1 UNK         0.0934 
     87 H87        27.8678    0.7604   -2.5407 H         1 UNK         0.0934 
     88 H88        29.5218    0.4550   -5.1059 H         1 UNK         0.0739 
     89 H89        27.2321   -1.0861   -4.5418 H         1 UNK         0.3093 
     90 H90        25.9192   -1.3355   -7.8333 H         1 UNK         0.0818 
     91 H91        27.3046   -3.4283   -6.0696 H         1 UNK         0.0819 
     92 H92        26.1459   -3.7506   -7.3632 H         1 UNK         0.0819 
     93 H93        27.7128   -3.0689   -7.7417 H         1 UNK         0.0819 
     94 H94        25.1892   -2.3947   -5.2383 H         1 UNK         0.3041 
     95 H95        22.9793    0.2901   -4.3919 H         1 UNK         0.0784 
     96 H96        21.6691   -1.1945   -5.8853 H         1 UNK         0.0793 
     97 H97        22.4653   -2.6156   -5.2282 H         1 UNK         0.0793 
     98 H98        21.4146   -1.6370   -4.2052 H         1 UNK         0.0793 
     99 H99        23.7382   -2.1723   -3.0930 H         1 UNK         0.3024 
    100 H100       26.4818   -0.8081   -1.2756 H         1 UNK         0.1171 
    101 H101       25.1500   -1.4076    0.7232 H         1 UNK         0.0786 
    102 H102       24.5214    0.0675    0.0101 H         1 UNK         0.0786 
    103 H103       23.6693   -1.4507   -0.2356 H         1 UNK         0.0786 
    104 H104       25.2294   -3.2934   -0.9452 H         1 UNK         0.2977 
    105 H105       26.2121    1.5676   -4.1457 H         1 UNK         0.3127 
    106 H106       26.6682    4.3255   -4.4233 H         1 UNK         0.0770 
    107 H107       24.0618    2.7295   -4.6682 H         1 UNK         0.0814 
    108 H108       24.1638    4.4690   -4.4240 H         1 UNK         0.0814 
    109 H109       24.7504    3.3763   -3.1803 H         1 UNK         0.0814 
    110 H110       25.5163    1.9722   -6.8672 H         1 UNK         0.2983 
    111 H111       25.1138    3.9123   -8.9598 H         1 UNK         0.0947 
    112 H112       24.9153    1.8696  -10.3859 H         1 UNK         0.0806 
    113 H113       23.9763    1.6929   -8.9130 H         1 UNK         0.0806 
    114 H114       25.5291    0.8736   -9.0733 H         1 UNK         0.0806 
    115 H115       27.9927    2.6719   -7.6106 H         1 UNK         0.3000 
    116 H116       30.1251    2.5486   -8.1158 H         1 UNK         0.0850 
    117 H117       31.1688    4.1840   -9.6280 H         1 UNK         0.0810 
    118 H118       29.9091    4.9816   -8.7007 H         1 UNK         0.0810 
    119 H119       29.6271    4.5470  -10.3870 H         1 UNK         0.0810 
    120 H120       28.3889    0.6003   -9.1403 H         1 UNK         0.3040 
    121 H121       29.5109   -0.3327  -11.7213 H         1 UNK         0.0766 
    122 H122       27.0696   -0.6426  -11.3105 H         1 UNK         0.0812 
    123 H123       27.4124   -1.5669   -9.8500 H         1 UNK         0.0812 
    124 H124       27.8850   -2.1949  -11.4222 H         1 UNK         0.0812 
    125 H125       29.6050   -0.9252   -8.2207 H         1 UNK         0.3205 
    126 H126       31.6807   -3.0365   -8.4766 H         1 UNK         0.0754 
    127 H127       31.4928   -3.1466   -6.0158 H         1 UNK         0.0769 
    128 H128       29.9074   -3.3387   -6.7321 H         1 UNK         0.0769 
    129 H129       30.3626   -1.8034   -5.9911 H         1 UNK         0.0769 
    130 H130       33.7675   -2.4980   -8.4056 H         1 UNK         0.2981 
    131 H131       35.5744   -1.2881   -8.6504 H         1 UNK         0.0541 
    132 H132       35.7269    1.4444   -6.7598 H         1 UNK         0.3459 
    133 H133       35.3595    2.5812   -8.0350 H         1 UNK         0.3459 
    134 H134       35.9605   -2.0857   -6.4802 H         1 UNK         0.0612 
    135 H135       36.5995   -0.4845   -6.5195 H         1 UNK         0.0612 
    136 H136       35.0950   -2.7086   -3.9589 H         1 UNK         0.0624 
    137 H137       34.0456   -2.9084   -5.3451 H         1 UNK         0.0624 
@<TRIPOS>BOND
     1    1    2 1    
     2    1   72 1    
     3    1   73 1    
     4    1   74 1    
     5    2    3 2    
     6    2    4 am   BACKBONE|DICT|INTERRES
     7    4    5 1    
     8    4   75 1    
     9    5    6 1    
    10    5   35 1    
    11    5   76 1    
    12    6    7 1    
    13    6   77 1    
    14    6   78 1    
    15    7    8 1    
    16    8    9 1    
    17    8   79 1    
    18    8   80 1    
    19    9   10 ar   
    20    9   14 ar   
    21   10   11 ar   
    22   10   81 1    
    23   11   12 ar   
    24   11   71 1    
    25   12   13 ar   
    26   12   82 1    
    27   13   14 ar   
    28   13   15 1    
    29   14   83 1    
    30   15   16 1    
    31   15   84 1    
    32   15   85 1    
    33   16   17 1    
    34   17   18 1    
    35   17   86 1    
    36   17   87 1    
    37   18   19 1    
    38   18   37 1    
    39   18   88 1    
    40   19   20 am   BACKBONE|DICT|INTERRES
    41   19   89 1    
    42   20   21 2    
    43   20   22 1    
    44   22   23 1    
    45   22   24 1    
    46   22   90 1    
    47   23   91 1    
    48   23   92 1    
    49   23   93 1    
    50   24   25 am   BACKBONE|DICT|INTERRES
    51   24   94 1    
    52   25   26 2    
    53   25   27 1    
    54   27   28 1    
    55   27   29 1    
    56   27   95 1    
    57   28   96 1    
    58   28   97 1    
    59   28   98 1    
    60   29   30 am   BACKBONE|DICT|INTERRES
    61   29   99 1    
    62   30   31 2    
    63   30   32 1    
    64   32   33 1    
    65   32   34 1    
    66   32  100 1    
    67   33  101 1    
    68   33  102 1    
    69   33  103 1    
    70   34   35 am   BACKBONE|DICT|INTERRES
    71   34  104 1    
    72   35   36 2    
    73   37   38 2    
    74   37   39 am   BACKBONE|DICT|INTERRES
    75   39   40 1    
    76   39  105 1    
    77   40   41 1    
    78   40   42 1    
    79   40  106 1    
    80   41  107 1    
    81   41  108 1    
    82   41  109 1    
    83   42   43 2    
    84   42   44 am   BACKBONE|DICT|INTERRES
    85   44   45 1    
    86   44  110 1    
    87   45   46 1    
    88   45   47 1    
    89   45  111 1    
    90   46  112 1    
    91   46  113 1    
    92   46  114 1    
    93   47   48 2    
    94   47   49 am   BACKBONE|DICT|INTERRES
    95   49   50 1    
    96   49  115 1    
    97   50   51 1    
    98   50   52 1    
    99   50  116 1    
   100   51  117 1    
   101   51  118 1    
   102   51  119 1    
   103   52   53 2    
   104   52   54 am   BACKBONE|DICT|INTERRES
   105   54   55 1    
   106   54  120 1    
   107   55   56 1    
   108   55   57 1    
   109   55  121 1    
   110   56  122 1    
   111   56  123 1    
   112   56  124 1    
   113   57   58 2    
   114   57   59 am   BACKBONE|DICT|INTERRES
   115   59   60 1    
   116   59  125 1    
   117   60   61 1    
   118   60   62 1    
   119   60  126 1    
   120   61  127 1    
   121   61  128 1    
   122   61  129 1    
   123   62   63 2    
   124   62   64 am   BACKBONE|DICT|INTERRES
   125   64   65 1    
   126   64  130 1    
   127   65   66 1    
   128   65   69 1    
   129   65  131 1    
   130   66   67 am   BACKBONE|DICT|INTERRES
   131   66   68 2    
   132   67  132 1    
   133   67  133 1    
   134   69   70 1    
   135   69  134 1    
   136   69  135 1    
   137   70   71 1    
   138   71  136 1    
   139   71  137 1    
@<TRIPOS>SUBSTRUCTURE
     1 UNK         1 GROUP             0       ****    0 ROOT    
