@<TRIPOS>MOLECULE
3R137
137   139    1
SMALL
USER_CHARGES


@<TRIPOS>ATOM
      1 CA         29.5990   -6.4255   -5.0617 C.3       0 UNK        -0.2020 
      2 C          28.5370   -6.4145   -3.9728 C.2       0 UNK         0.4855 
      3 O          27.9219   -7.4453   -3.6993 O.2       0 UNK        -0.5197 
      4 N          28.3133   -5.2512   -3.3586 N.am      1 UNK        -0.4892 
      5 CA         27.2937   -4.9851   -2.3472 C.3       1 UNK         0.0835 
      6 C6         27.6598   -5.5802   -0.9494 C.3       12 UNK        -0.0855 
      7 S7         28.6209   -4.5652    0.2337 S.3       12 UNK        -0.2931 
      8 C8         30.3229   -4.6103   -0.4358 C.3       12 UNK         0.0378 
      9 C9         30.5542   -3.5742   -1.5318 C.ar      12 UNK        -0.0802 
     10 C10        31.2650   -3.9145   -2.6880 C.ar      12 UNK        -0.0944 
     11 C11        31.4051   -2.9926   -3.7303 C.ar      12 UNK        -0.0787 
     12 C12        30.8146   -1.7319   -3.6153 C.ar      12 UNK        -0.0862 
     13 C13        30.1504   -1.3571   -2.4436 C.ar      12 UNK        -0.0733 
     14 C14        30.0451   -2.2774   -1.4004 C.ar      12 UNK        -0.0832 
     15 C15        29.4495   -0.0109   -2.3148 C.3       12 UNK         0.0240 
     16 S16        30.2930    1.3540   -3.1772 S.3       12 UNK        -0.2522 
     17 C17        28.8592    2.3617   -3.6716 C.3       12 UNK        -0.0967 
     18 CA         28.4343    2.0821   -5.1339 C.3       5 UNK         0.0660 
     19 N          27.9646    0.7089   -5.3496 N.am      5 UNK        -0.4015 
     20 C          27.9020    0.1159   -6.5504 C.2       4 UNK         0.4946 
     21 O          28.2899    0.6353   -7.5960 O.2       4 UNK        -0.5353 
     22 CA         27.2568   -1.2759   -6.6182 C.3       4 UNK         0.0277 
     23 CB         28.3193   -2.3750   -6.4668 C.3       4 UNK        -0.1981 
     24 N          26.1850   -1.4584   -5.6350 N.am      4 UNK        -0.4209 
     25 C          25.0108   -0.8085   -5.6900 C.2       3 UNK         0.4942 
     26 O          24.7363    0.0137   -6.5635 O.2       3 UNK        -0.5208 
     27 CA         23.9693   -1.0854   -4.5905 C.3       3 UNK         0.0250 
     28 CB         22.9469   -2.1245   -5.0764 C.3       3 UNK        -0.1990 
     29 N          24.5392   -1.5277   -3.3175 N.am      3 UNK        -0.4232 
     30 C          25.3626   -0.8035   -2.5479 C.2       2 UNK         0.4993 
     31 O          25.7282    0.3422   -2.8206 O.2       2 UNK        -0.5286 
     32 CA         25.9193   -1.5073   -1.2948 C.3       2 UNK         0.0209 
     33 CB         24.9758   -1.3001   -0.0997 C.3       2 UNK        -0.1931 
     34 N          26.1976   -2.9458   -1.4555 N.am      2 UNK        -0.4546 
     35 C          26.9699   -3.4768   -2.4158 C.2       1 UNK         0.5154 
     36 O          27.4116   -2.8139   -3.3593 O.2       1 UNK        -0.5181 
     37 C          27.3745    3.1015   -5.5861 C.2       5 UNK         0.5014 
     38 O          27.7379    4.1201   -6.1740 O.2       5 UNK        -0.5248 
     39 N          26.0901    2.8081   -5.3267 N.am      6 UNK        -0.4434 
     40 CA         24.9527    3.6367   -5.7383 C.3       6 UNK         0.0363 
     41 CB         23.6674    3.1253   -5.0680 C.3       6 UNK        -0.1936 
     42 C          24.7892    3.6944   -7.2668 C.2       6 UNK         0.5081 
     43 O          24.5503    4.7716   -7.8129 O.2       6 UNK        -0.5248 
     44 N          24.9516    2.5415   -7.9293 N.am      7 UNK        -0.4718 
     45 CA         24.9457    2.4123   -9.3883 C.3       7 UNK         0.0273 
     46 CB         24.6848    0.9405   -9.7496 C.3       7 UNK        -0.1935 
     47 C          26.2486    2.8935  -10.0541 C.2       7 UNK         0.5018 
     48 O          26.2407    3.1345  -11.2618 O.2       7 UNK        -0.5186 
     49 N          27.3376    2.9847   -9.2730 N.am      8 UNK        -0.4240 
     50 CA         28.7281    3.2127   -9.6924 C.3       8 UNK         0.0235 
     51 CB         28.9126    4.6364  -10.2583 C.3       8 UNK        -0.2000 
     52 C          29.2239    2.1053  -10.6458 C.2       8 UNK         0.4941 
     53 O          29.8651    2.3913  -11.6589 O.2       8 UNK        -0.5273 
     54 N          28.8733    0.8578  -10.3109 N.am      9 UNK        -0.4262 
     55 CA         29.0876   -0.3303  -11.1339 C.3       9 UNK         0.0264 
     56 CB         27.9127   -1.2994  -10.9209 C.3       9 UNK        -0.1955 
     57 C          30.4164   -1.0357  -10.8310 C.2       9 UNK         0.5031 
     58 O          30.9731   -1.6632  -11.7337 O.2       9 UNK        -0.5390 
     59 N          30.8984   -0.9435   -9.5857 N.am      10 UNK        -0.4204 
     60 CA         32.1189   -1.5924   -9.1125 C.3       10 UNK         0.0237 
     61 CB         31.8675   -3.0972   -8.8788 C.3       10 UNK        -0.1985 
     62 C          32.5990   -0.9094   -7.8285 C.2       10 UNK         0.4970 
     63 O          31.8162   -0.2112   -7.1792 O.2       10 UNK        -0.4914 
     64 N          33.8672   -1.1646   -7.4828 N.am      11 UNK        -0.4285 
     65 CA         34.5773   -0.6395   -6.3044 C.3       11 UNK         0.1007 
     66 C          34.7539    0.9114   -6.3420 C.2       11 UNK         0.5703 
     67 N          35.0008    1.5613   -5.2117 N.am      11 UNK        -0.7361 
     68 O          34.7297    1.5330   -7.4035 O.2       11 UNK        -0.4986 
     69 C69        34.0065   -1.1806   -4.9588 C.3       12 UNK        -0.0947 
     70 S70        33.9441   -3.0063   -4.8686 S.3       12 UNK        -0.2240 
     71 C71        32.1615   -3.3637   -4.9972 C.3       12 UNK         0.0194 
     72 H72        30.5267   -6.8499   -4.6788 H         1 UNK         0.0906 
     73 H73        29.2689   -7.0299   -5.9062 H         1 UNK         0.0906 
     74 H74        29.8043   -5.4209   -5.4307 H         1 UNK         0.0906 
     75 H75        28.8004   -4.4088   -3.6446 H         1 UNK         0.3140 
     76 H76        26.3829   -5.4837   -2.6867 H         1 UNK         0.1085 
     77 H77        28.1655   -6.5400   -1.0647 H         1 UNK         0.0836 
     78 H78        26.7295   -5.8275   -0.4359 H         1 UNK         0.0836 
     79 H79        30.5393   -5.6170   -0.7969 H         1 UNK         0.0731 
     80 H80        31.0235   -4.4131    0.3764 H         1 UNK         0.0731 
     81 H81        31.6906   -4.9037   -2.7883 H         1 UNK         0.1312 
     82 H82        30.8660   -1.0431   -4.4470 H         1 UNK         0.1406 
     83 H83        29.5070   -2.0029   -0.5036 H         1 UNK         0.1631 
     84 H84        29.3348    0.2666   -1.2659 H         1 UNK         0.0717 
     85 H85        28.4447   -0.1357   -2.7150 H         1 UNK         0.0717 
     86 H86        28.0294    2.2046   -2.9790 H         1 UNK         0.0934 
     87 H87        29.1510    3.4077   -3.5556 H         1 UNK         0.0934 
     88 H88        29.3116    2.2351   -5.7675 H         1 UNK         0.0739 
     89 H89        27.6050    0.2145   -4.5458 H         1 UNK         0.3093 
     90 H90        26.8114   -1.3775   -7.6101 H         1 UNK         0.0818 
     91 H91        29.0864   -2.2777   -7.2354 H         1 UNK         0.0819 
     92 H92        28.8210   -2.3222   -5.5017 H         1 UNK         0.0819 
     93 H93        27.8828   -3.3689   -6.5645 H         1 UNK         0.0819 
     94 H94        26.3869   -2.0713   -4.8496 H         1 UNK         0.3041 
     95 H95        23.4404   -0.1489   -4.4033 H         1 UNK         0.0784 
     96 H96        22.4832   -1.8072   -6.0118 H         1 UNK         0.0793 
     97 H97        23.4112   -3.0951   -5.2559 H         1 UNK         0.0793 
     98 H98        22.1448   -2.2629   -4.3511 H         1 UNK         0.0793 
     99 H99        24.3122   -2.4642   -3.0163 H         1 UNK         0.3024 
    100 H100       26.8695   -1.0250   -1.0591 H         1 UNK         0.1171 
    101 H101       25.4153   -1.6789    0.8233 H         1 UNK         0.0786 
    102 H102       24.7677   -0.2402    0.0551 H         1 UNK         0.0786 
    103 H103       24.0190   -1.8023   -0.2479 H         1 UNK         0.0786 
    104 H104       25.8764   -3.5497   -0.7122 H         1 UNK         0.2977 
    105 H105       25.8752    1.9543   -4.8297 H         1 UNK         0.3127 
    106 H106       25.1376    4.6537   -5.3854 H         1 UNK         0.0770 
    107 H107       23.4089    2.1197   -5.3999 H         1 UNK         0.0814 
    108 H108       22.8223    3.7719   -5.3078 H         1 UNK         0.0814 
    109 H109       23.7637    3.1070   -3.9822 H         1 UNK         0.0814 
    110 H110       25.0598    1.6806   -7.3964 H         1 UNK         0.2983 
    111 H111       24.1291    3.0165   -9.7897 H         1 UNK         0.0947 
    112 H112       24.6471    0.8011  -10.8308 H         1 UNK         0.0806 
    113 H113       23.7332    0.5956   -9.3444 H         1 UNK         0.0806 
    114 H114       25.4679    0.2874   -9.3619 H         1 UNK         0.0806 
    115 H115       27.2199    2.7469   -8.2974 H         1 UNK         0.3000 
    116 H116       29.3357    3.1334   -8.7893 H         1 UNK         0.0850 
    117 H117       29.9649    4.8432  -10.4565 H         1 UNK         0.0810 
    118 H118       28.5612    5.3898   -9.5532 H         1 UNK         0.0810 
    119 H119       28.3728    4.7750  -11.1954 H         1 UNK         0.0810 
    120 H120       28.4336    0.7225   -9.4013 H         1 UNK         0.3040 
    121 H121       29.0985   -0.0401  -12.1869 H         1 UNK         0.0766 
    122 H122       26.9644   -0.8376  -11.1958 H         1 UNK         0.0812 
    123 H123       27.8403   -1.6256   -9.8828 H         1 UNK         0.0812 
    124 H124       28.0273   -2.1928  -11.5364 H         1 UNK         0.0812 
    125 H125       30.4284   -0.3680   -8.8956 H         1 UNK         0.3205 
    126 H126       32.8976   -1.4669   -9.8681 H         1 UNK         0.0754 
    127 H127       32.7538   -3.5922   -8.4800 H         1 UNK         0.0769 
    128 H128       31.6097   -3.6070   -9.8071 H         1 UNK         0.0769 
    129 H129       31.0550   -3.2661   -8.1725 H         1 UNK         0.0769 
    130 H130       34.4262   -1.7402   -8.0950 H         1 UNK         0.2981 
    131 H131       35.5926   -1.0260   -6.3972 H         1 UNK         0.0541 
    132 H132       35.0465    1.0761   -4.3300 H         1 UNK         0.3459 
    133 H133       35.1364    2.5595   -5.2426 H         1 UNK         0.3459 
    134 H134       34.6319   -0.8601   -4.1248 H         1 UNK         0.0612 
    135 H135       33.0249   -0.7520   -4.7731 H         1 UNK         0.0612 
    136 H136       32.0393   -4.4278   -5.2018 H         1 UNK         0.0624 
    137 H137       31.7399   -2.8400   -5.8542 H         1 UNK         0.0624 
@<TRIPOS>BOND
     1    1    2 1    
     2    1   72 1    
     3    1   73 1    
     4    1   74 1    
     5    2    3 2    
     6    2    4 am   BACKBONE|DICT|INTERRES
     7    4    5 1    
     8    4   75 1    
     9    5    6 1    
    10    5   35 1    
    11    5   76 1    
    12    6    7 1    
    13    6   77 1    
    14    6   78 1    
    15    7    8 1    
    16    8    9 1    
    17    8   79 1    
    18    8   80 1    
    19    9   10 ar   
    20    9   14 ar   
    21   10   11 ar   
    22   10   81 1    
    23   11   12 ar   
    24   11   71 1    
    25   12   13 ar   
    26   12   82 1    
    27   13   14 ar   
    28   13   15 1    
    29   14   83 1    
    30   15   16 1    
    31   15   84 1    
    32   15   85 1    
    33   16   17 1    
    34   17   18 1    
    35   17   86 1    
    36   17   87 1    
    37   18   19 1    
    38   18   37 1    
    39   18   88 1    
    40   19   20 am   BACKBONE|DICT|INTERRES
    41   19   89 1    
    42   20   21 2    
    43   20   22 1    
    44   22   23 1    
    45   22   24 1    
    46   22   90 1    
    47   23   91 1    
    48   23   92 1    
    49   23   93 1    
    50   24   25 am   BACKBONE|DICT|INTERRES
    51   24   94 1    
    52   25   26 2    
    53   25   27 1    
    54   27   28 1    
    55   27   29 1    
    56   27   95 1    
    57   28   96 1    
    58   28   97 1    
    59   28   98 1    
    60   29   30 am   BACKBONE|DICT|INTERRES
    61   29   99 1    
    62   30   31 2    
    63   30   32 1    
    64   32   33 1    
    65   32   34 1    
    66   32  100 1    
    67   33  101 1    
    68   33  102 1    
    69   33  103 1    
    70   34   35 am   BACKBONE|DICT|INTERRES
    71   34  104 1    
    72   35   36 2    
    73   37   38 2    
    74   37   39 am   BACKBONE|DICT|INTERRES
    75   39   40 1    
    76   39  105 1    
    77   40   41 1    
    78   40   42 1    
    79   40  106 1    
    80   41  107 1    
    81   41  108 1    
    82   41  109 1    
    83   42   43 2    
    84   42   44 am   BACKBONE|DICT|INTERRES
    85   44   45 1    
    86   44  110 1    
    87   45   46 1    
    88   45   47 1    
    89   45  111 1    
    90   46  112 1    
    91   46  113 1    
    92   46  114 1    
    93   47   48 2    
    94   47   49 am   BACKBONE|DICT|INTERRES
    95   49   50 1    
    96   49  115 1    
    97   50   51 1    
    98   50   52 1    
    99   50  116 1    
   100   51  117 1    
   101   51  118 1    
   102   51  119 1    
   103   52   53 2    
   104   52   54 am   BACKBONE|DICT|INTERRES
   105   54   55 1    
   106   54  120 1    
   107   55   56 1    
   108   55   57 1    
   109   55  121 1    
   110   56  122 1    
   111   56  123 1    
   112   56  124 1    
   113   57   58 2    
   114   57   59 am   BACKBONE|DICT|INTERRES
   115   59   60 1    
   116   59  125 1    
   117   60   61 1    
   118   60   62 1    
   119   60  126 1    
   120   61  127 1    
   121   61  128 1    
   122   61  129 1    
   123   62   63 2    
   124   62   64 am   BACKBONE|DICT|INTERRES
   125   64   65 1    
   126   64  130 1    
   127   65   66 1    
   128   65   69 1    
   129   65  131 1    
   130   66   67 am   BACKBONE|DICT|INTERRES
   131   66   68 2    
   132   67  132 1    
   133   67  133 1    
   134   69   70 1    
   135   69  134 1    
   136   69  135 1    
   137   70   71 1    
   138   71  136 1    
   139   71  137 1    
@<TRIPOS>SUBSTRUCTURE
     1 UNK         1 GROUP             0       ****    0 ROOT    
