@<TRIPOS>MOLECULE
3R137
137   139    1
SMALL
USER_CHARGES


@<TRIPOS>ATOM
      1 CA         30.7723    1.3413   -0.7747 C.3       0 UNK        -0.2020 
      2 C          30.1852    0.8453   -2.0861 C.2       0 UNK         0.4855 
      3 O          30.2674    1.5444   -3.0962 O.2       0 UNK        -0.5197 
      4 N          29.5766   -0.3467   -2.0827 N.am      1 UNK        -0.4892 
      5 CA         29.0087   -1.0432   -3.2484 C.3       1 UNK         0.0835 
      6 C6         28.8618   -2.5656   -2.9788 C.3       12 UNK        -0.0855 
      7 S7         30.4296   -3.3733   -2.5143 S.3       12 UNK        -0.2931 
      8 C8         30.2031   -5.0321   -3.2340 C.3       12 UNK         0.0378 
      9 C9         30.3200   -5.0144   -4.7516 C.ar      12 UNK        -0.0802 
     10 C10        31.5669   -4.8155   -5.3468 C.ar      12 UNK        -0.0944 
     11 C11        31.6975   -4.7959   -6.7370 C.ar      12 UNK        -0.0787 
     12 C12        30.5640   -4.9842   -7.5354 C.ar      12 UNK        -0.0862 
     13 C13        29.3064   -5.1977   -6.9563 C.ar      12 UNK        -0.0733 
     14 C14        29.1961   -5.2158   -5.5592 C.ar      12 UNK        -0.0832 
     15 C15        28.1032   -5.4697   -7.8624 C.3       12 UNK         0.0240 
     16 S16        26.4948   -4.8919   -7.2135 S.3       12 UNK        -0.2522 
     17 C17        26.6763   -3.0902   -7.3945 C.3       12 UNK        -0.0967 
     18 CA         25.3667   -2.3162   -7.0918 C.3       5 UNK         0.0660 
     19 N          24.9869   -2.4362   -5.6911 N.am      5 UNK        -0.4015 
     20 C          23.8743   -3.0036   -5.2167 C.2       4 UNK         0.4946 
     21 O          22.9816   -3.4721   -5.9244 O.2       4 UNK        -0.5353 
     22 CA         23.7330   -3.0581   -3.6896 C.3       4 UNK         0.0277 
     23 CB         24.6430   -4.1547   -3.1082 C.3       4 UNK        -0.1981 
     24 N          24.0763   -1.7727   -3.0767 N.am      4 UNK        -0.4209 
     25 C          23.2140   -0.9692   -2.4391 C.2       3 UNK         0.4942 
     26 O          22.0179   -1.2252   -2.2926 O.2       3 UNK        -0.5208 
     27 CA         23.7690    0.3374   -1.8379 C.3       3 UNK         0.0250 
     28 CB         24.0378    0.1607   -0.3343 C.3       3 UNK        -0.1990 
     29 N          24.9918    0.8174   -2.4859 N.am      3 UNK        -0.4232 
     30 C          25.0499    1.3298   -3.7226 C.2       2 UNK         0.4993 
     31 O          24.0617    1.5068   -4.4343 O.2       2 UNK        -0.5286 
     32 CA         26.4436    1.7061   -4.2611 C.3       2 UNK         0.0209 
     33 CB         26.7203    3.1902   -3.9695 C.3       2 UNK        -0.1931 
     34 N          27.5679    0.9044   -3.7551 N.am      2 UNK        -0.4546 
     35 C          27.6673   -0.4322   -3.7228 C.2       1 UNK         0.5154 
     36 O          26.7307   -1.1803   -4.0075 O.2       1 UNK        -0.5181 
     37 C          25.5320   -0.8150   -7.3609 C.2       5 UNK         0.5014 
     38 O          26.6399   -0.2938   -7.2358 O.2       5 UNK        -0.5248 
     39 N          24.4329   -0.1329   -7.7121 N.am      6 UNK        -0.4434 
     40 CA         24.3867    1.3174   -7.9561 C.3       6 UNK         0.0363 
     41 CB         22.9428    1.7340   -8.2772 C.3       6 UNK        -0.1936 
     42 C          25.3483    1.8153   -9.0528 C.2       6 UNK         0.5081 
     43 O          25.8258    2.9470   -8.9740 O.2       6 UNK        -0.5248 
     44 N          25.6347    0.9538  -10.0374 N.am      7 UNK        -0.4718 
     45 CA         26.6044    1.1960  -11.1074 C.3       7 UNK         0.0273 
     46 CB         26.2635    0.2793  -12.2946 C.3       7 UNK        -0.1935 
     47 C          28.0712    0.9920  -10.6762 C.2       7 UNK         0.5018 
     48 O          28.9638    1.3669  -11.4376 O.2       7 UNK        -0.5186 
     49 N          28.3077    0.3991   -9.4974 N.am      8 UNK        -0.4240 
     50 CA         29.6299    0.0700   -8.9660 C.3       8 UNK         0.0235 
     51 CB         29.7791   -1.4598   -8.8899 C.3       8 UNK        -0.2000 
     52 C          29.8287    0.7558   -7.6063 C.2       8 UNK         0.4941 
     53 O          30.1830    0.1056   -6.6212 O.2       8 UNK        -0.5273 
     54 N          29.6004    2.0747   -7.5748 N.am      9 UNK        -0.4262 
     55 CA         29.8968    2.9252   -6.4243 C.3       9 UNK         0.0264 
     56 CB         29.2597    4.3086   -6.6352 C.3       9 UNK        -0.1955 
     57 C          31.4178    3.0364   -6.2280 C.2       9 UNK         0.5031 
     58 O          32.1156    3.4265   -7.1676 O.2       9 UNK        -0.5390 
     59 N          31.8908    2.6792   -5.0263 N.am      10 UNK        -0.4204 
     60 CA         33.2968    2.6008   -4.6130 C.3       10 UNK         0.0237 
     61 CB         33.9344    4.0060   -4.5535 C.3       10 UNK        -0.1985 
     62 C          34.1072    1.5959   -5.4580 C.2       10 UNK         0.4970 
     63 O          35.2083    1.9173   -5.9099 O.2       10 UNK        -0.4914 
     64 N          33.5331    0.4015   -5.6624 N.am      11 UNK        -0.4285 
     65 CA         34.1312   -0.7266   -6.3935 C.3       11 UNK         0.1007 
     66 C          35.5064   -1.1801   -5.8242 C.2       11 UNK         0.5703 
     67 N          36.4431   -1.5592   -6.6831 N.am      11 UNK        -0.7361 
     68 O          35.7137   -1.2271   -4.6126 O.2       11 UNK        -0.4986 
     69 C69        33.1380   -1.9168   -6.4623 C.3       12 UNK        -0.0947 
     70 S70        33.3258   -2.9074   -7.9825 S.3       12 UNK        -0.2240 
     71 C71        33.0718   -4.6013   -7.3666 C.3       12 UNK         0.0194 
     72 H72        30.6273    0.6256    0.0343 H         1 UNK         0.0906 
     73 H73        31.8421    1.5151   -0.8867 H         1 UNK         0.0906 
     74 H74        30.3027    2.2813   -0.4861 H         1 UNK         0.0906 
     75 H75        29.5376   -0.8710   -1.2199 H         1 UNK         0.3140 
     76 H76        29.7027   -0.9218   -4.0839 H         1 UNK         0.1085 
     77 H77        28.4695   -3.0619   -3.8678 H         1 UNK         0.0836 
     78 H78        28.1354   -2.7490   -2.1847 H         1 UNK         0.0836 
     79 H79        30.9632   -5.6995   -2.8253 H         1 UNK         0.0731 
     80 H80        29.2403   -5.4373   -2.9182 H         1 UNK         0.0731 
     81 H81        32.4372   -4.6733   -4.7207 H         1 UNK         0.1312 
     82 H82        30.6680   -4.9787   -8.6119 H         1 UNK         0.1406 
     83 H83        28.2357   -5.3950   -5.0960 H         1 UNK         0.1631 
     84 H84        28.0384   -6.5465   -8.0223 H         1 UNK         0.0717 
     85 H85        28.2608   -5.0234   -8.8456 H         1 UNK         0.0717 
     86 H86        27.0045   -2.8869   -8.4155 H         1 UNK         0.0934 
     87 H87        27.4808   -2.7623   -6.7321 H         1 UNK         0.0934 
     88 H88        24.5787   -2.6956   -7.7459 H         1 UNK         0.0739 
     89 H89        25.6531   -2.0224   -5.0381 H         1 UNK         0.3093 
     90 H90        22.6983   -3.3260   -3.4654 H         1 UNK         0.0818 
     91 H91        25.6988   -3.9458   -3.2869 H         1 UNK         0.0819 
     92 H92        24.5005   -4.2555   -2.0323 H         1 UNK         0.0819 
     93 H93        24.4218   -5.1242   -3.5569 H         1 UNK         0.0819 
     94 H94        25.0351   -1.4578   -3.1947 H         1 UNK         0.3041 
     95 H95        22.9999    1.1033   -1.9596 H         1 UNK         0.0784 
     96 H96        23.1370   -0.1661    0.1874 H         1 UNK         0.0793 
     97 H97        24.8112   -0.5853   -0.1468 H         1 UNK         0.0793 
     98 H98        24.3538    1.0972    0.1259 H         1 UNK         0.0793 
     99 H99        25.8551    0.7154   -1.9725 H         1 UNK         0.3024 
    100 H100       26.4213    1.5647   -5.3429 H         1 UNK         0.1171 
    101 H101       27.6728    3.5138   -4.3842 H         1 UNK         0.0786 
    102 H102       26.7420    3.3914   -2.8977 H         1 UNK         0.0786 
    103 H103       25.9471    3.8246   -4.4056 H         1 UNK         0.0786 
    104 H104       28.4095    1.4118   -3.4978 H         1 UNK         0.2977 
    105 H105       23.5543   -0.6285   -7.7717 H         1 UNK         0.3127 
    106 H106       24.6819    1.8133   -7.0303 H         1 UNK         0.0770 
    107 H107       22.5684    1.2393   -9.1743 H         1 UNK         0.0814 
    108 H108       22.8756    2.8099   -8.4458 H         1 UNK         0.0814 
    109 H109       22.2698    1.4964   -7.4530 H         1 UNK         0.0814 
    110 H110       25.1888    0.0480  -10.0229 H         1 UNK         0.2983 
    111 H111       26.5079    2.2327  -11.4382 H         1 UNK         0.0947 
    112 H112       26.9377    0.4582  -13.1336 H         1 UNK         0.0806 
    113 H113       25.2499    0.4559  -12.6550 H         1 UNK         0.0806 
    114 H114       26.3483   -0.7752  -12.0287 H         1 UNK         0.0806 
    115 H115       27.5316    0.1941   -8.8727 H         1 UNK         0.3000 
    116 H116       30.4149    0.4489   -9.6236 H         1 UNK         0.0850 
    117 H117       30.7993   -1.7313   -8.6267 H         1 UNK         0.0810 
    118 H118       29.5516   -1.9366   -9.8431 H         1 UNK         0.0810 
    119 H119       29.1307   -1.8897   -8.1293 H         1 UNK         0.0810 
    120 H120       29.3255    2.5389   -8.4280 H         1 UNK         0.3040 
    121 H121       29.4498    2.4660   -5.5410 H         1 UNK         0.0766 
    122 H122       29.6741    4.8160   -7.5075 H         1 UNK         0.0812 
    123 H123       28.1808    4.2323   -6.7742 H         1 UNK         0.0812 
    124 H124       29.4330    4.9518   -5.7716 H         1 UNK         0.0812 
    125 H125       31.2232    2.3299   -4.3352 H         1 UNK         0.3205 
    126 H126       33.2906    2.2032   -3.5969 H         1 UNK         0.0754 
    127 H127       34.9397    3.9608   -4.1329 H         1 UNK         0.0769 
    128 H128       33.3512    4.6790   -3.9251 H         1 UNK         0.0769 
    129 H129       34.0166    4.4576   -5.5427 H         1 UNK         0.0769 
    130 H130       32.6129    0.2388   -5.2803 H         1 UNK         0.2981 
    131 H131       34.2950   -0.3521   -7.4060 H         1 UNK         0.0541 
    132 H132       37.3353   -1.8693   -6.3319 H         1 UNK         0.3459 
    133 H133       36.2692   -1.5515   -7.6761 H         1 UNK         0.3459 
    134 H134       32.1074   -1.5645   -6.4596 H         1 UNK         0.0612 
    135 H135       33.2286   -2.5491   -5.5780 H         1 UNK         0.0612 
    136 H136       33.1919   -5.2978   -8.1976 H         1 UNK         0.0624 
    137 H137       33.8610   -4.8415   -6.6523 H         1 UNK         0.0624 
@<TRIPOS>BOND
     1    1    2 1    
     2    1   72 1    
     3    1   73 1    
     4    1   74 1    
     5    2    3 2    
     6    2    4 am   BACKBONE|DICT|INTERRES
     7    4    5 1    
     8    4   75 1    
     9    5    6 1    
    10    5   35 1    
    11    5   76 1    
    12    6    7 1    
    13    6   77 1    
    14    6   78 1    
    15    7    8 1    
    16    8    9 1    
    17    8   79 1    
    18    8   80 1    
    19    9   10 ar   
    20    9   14 ar   
    21   10   11 ar   
    22   10   81 1    
    23   11   12 ar   
    24   11   71 1    
    25   12   13 ar   
    26   12   82 1    
    27   13   14 ar   
    28   13   15 1    
    29   14   83 1    
    30   15   16 1    
    31   15   84 1    
    32   15   85 1    
    33   16   17 1    
    34   17   18 1    
    35   17   86 1    
    36   17   87 1    
    37   18   19 1    
    38   18   37 1    
    39   18   88 1    
    40   19   20 am   BACKBONE|DICT|INTERRES
    41   19   89 1    
    42   20   21 2    
    43   20   22 1    
    44   22   23 1    
    45   22   24 1    
    46   22   90 1    
    47   23   91 1    
    48   23   92 1    
    49   23   93 1    
    50   24   25 am   BACKBONE|DICT|INTERRES
    51   24   94 1    
    52   25   26 2    
    53   25   27 1    
    54   27   28 1    
    55   27   29 1    
    56   27   95 1    
    57   28   96 1    
    58   28   97 1    
    59   28   98 1    
    60   29   30 am   BACKBONE|DICT|INTERRES
    61   29   99 1    
    62   30   31 2    
    63   30   32 1    
    64   32   33 1    
    65   32   34 1    
    66   32  100 1    
    67   33  101 1    
    68   33  102 1    
    69   33  103 1    
    70   34   35 am   BACKBONE|DICT|INTERRES
    71   34  104 1    
    72   35   36 2    
    73   37   38 2    
    74   37   39 am   BACKBONE|DICT|INTERRES
    75   39   40 1    
    76   39  105 1    
    77   40   41 1    
    78   40   42 1    
    79   40  106 1    
    80   41  107 1    
    81   41  108 1    
    82   41  109 1    
    83   42   43 2    
    84   42   44 am   BACKBONE|DICT|INTERRES
    85   44   45 1    
    86   44  110 1    
    87   45   46 1    
    88   45   47 1    
    89   45  111 1    
    90   46  112 1    
    91   46  113 1    
    92   46  114 1    
    93   47   48 2    
    94   47   49 am   BACKBONE|DICT|INTERRES
    95   49   50 1    
    96   49  115 1    
    97   50   51 1    
    98   50   52 1    
    99   50  116 1    
   100   51  117 1    
   101   51  118 1    
   102   51  119 1    
   103   52   53 2    
   104   52   54 am   BACKBONE|DICT|INTERRES
   105   54   55 1    
   106   54  120 1    
   107   55   56 1    
   108   55   57 1    
   109   55  121 1    
   110   56  122 1    
   111   56  123 1    
   112   56  124 1    
   113   57   58 2    
   114   57   59 am   BACKBONE|DICT|INTERRES
   115   59   60 1    
   116   59  125 1    
   117   60   61 1    
   118   60   62 1    
   119   60  126 1    
   120   61  127 1    
   121   61  128 1    
   122   61  129 1    
   123   62   63 2    
   124   62   64 am   BACKBONE|DICT|INTERRES
   125   64   65 1    
   126   64  130 1    
   127   65   66 1    
   128   65   69 1    
   129   65  131 1    
   130   66   67 am   BACKBONE|DICT|INTERRES
   131   66   68 2    
   132   67  132 1    
   133   67  133 1    
   134   69   70 1    
   135   69  134 1    
   136   69  135 1    
   137   70   71 1    
   138   71  136 1    
   139   71  137 1    
@<TRIPOS>SUBSTRUCTURE
     1 UNK         1 GROUP             0       ****    0 ROOT    
