@<TRIPOS>MOLECULE
3R137
137   139    1
SMALL
USER_CHARGES


@<TRIPOS>ATOM
      1 CA         24.3632   -4.8087   -0.0090 C.3       0 UNK        -0.2020 
      2 C          24.5440   -4.8138   -1.5242 C.2       0 UNK         0.4855 
      3 O          23.8305   -5.5391   -2.2145 O.2       0 UNK        -0.5197 
      4 N          25.4783   -4.0370   -2.0865 N.am      1 UNK        -0.4892 
      5 CA         26.3536   -3.0702   -1.4175 C.3       1 UNK         0.0835 
      6 C6         27.6842   -2.9292   -2.2013 C.3       12 UNK        -0.0855 
      7 S7         29.1180   -2.5542   -1.1405 S.3       12 UNK        -0.2931 
      8 C8         30.2568   -3.9058   -1.5826 C.3       12 UNK         0.0378 
      9 C9         30.7323   -3.8163   -3.0288 C.ar      12 UNK        -0.0802 
     10 C10        31.6962   -2.8716   -3.3923 C.ar      12 UNK        -0.0944 
     11 C11        32.1825   -2.8146   -4.7025 C.ar      12 UNK        -0.0787 
     12 C12        31.6902   -3.7161   -5.6545 C.ar      12 UNK        -0.0862 
     13 C13        30.7139   -4.6560   -5.3098 C.ar      12 UNK        -0.0733 
     14 C14        30.2413   -4.7020   -3.9941 C.ar      12 UNK        -0.0832 
     15 C15        30.2091   -5.6575   -6.3432 C.3       12 UNK         0.0240 
     16 S16        29.2553   -4.8834   -7.6906 S.3       12 UNK        -0.2522 
     17 C17        27.7602   -4.3040   -6.8178 C.3       12 UNK        -0.0967 
     18 CA         27.1656   -3.0105   -7.4425 C.3       5 UNK         0.0660 
     19 N          25.7919   -2.7037   -7.0253 N.am      5 UNK        -0.4015 
     20 C          25.3438   -2.5994   -5.7689 C.2       4 UNK         0.4946 
     21 O          26.0001   -2.9105   -4.7757 O.2       4 UNK        -0.5353 
     22 CA         23.9598   -1.9639   -5.5722 C.3       4 UNK         0.0277 
     23 CB         22.9879   -2.9489   -4.9043 C.3       4 UNK        -0.1981 
     24 N          24.0747   -0.7572   -4.7479 N.am      4 UNK        -0.4209 
     25 C          24.7550    0.3416   -5.1132 C.2       3 UNK         0.4942 
     26 O          25.2960    0.4671   -6.2118 O.2       3 UNK        -0.5208 
     27 CA         24.8970    1.4738   -4.0884 C.3       3 UNK         0.0250 
     28 CB         23.6834    2.4172   -4.1265 C.3       3 UNK        -0.1990 
     29 N          25.0936    0.9408   -2.7434 N.am      3 UNK        -0.4232 
     30 C          25.8105    1.5000   -1.7656 C.2       2 UNK         0.4993 
     31 O          26.3519    2.6020   -1.8555 O.2       2 UNK        -0.5286 
     32 CA         25.9742    0.6808   -0.4698 C.3       2 UNK         0.0209 
     33 CB         24.7306    0.8127    0.4317 C.3       2 UNK        -0.1931 
     34 N          26.3418   -0.7313   -0.6813 N.am      2 UNK        -0.4546 
     35 C          25.6376   -1.7093   -1.2698 C.2       1 UNK         0.5154 
     36 O          24.4975   -1.5503   -1.7194 O.2       1 UNK        -0.5181 
     37 C          28.0876   -1.7848   -7.2728 C.2       5 UNK         0.5014 
     38 O          28.6525   -1.3275   -8.2654 O.2       5 UNK        -0.5248 
     39 N          28.2033   -1.2619   -6.0440 N.am      6 UNK        -0.4434 
     40 CA         29.1371   -0.1989   -5.6549 C.3       6 UNK         0.0363 
     41 CB         28.9890    0.1067   -4.1570 C.3       6 UNK        -0.1936 
     42 C          29.0562    1.0971   -6.4809 C.2       6 UNK         0.5081 
     43 O          30.1017    1.6487   -6.8287 O.2       6 UNK        -0.5248 
     44 N          27.8405    1.5684   -6.7873 N.am      7 UNK        -0.4718 
     45 CA         27.6262    2.7696   -7.6006 C.3       7 UNK         0.0273 
     46 CB         26.2827    3.4206   -7.2340 C.3       7 UNK        -0.1935 
     47 C          27.6848    2.4678   -9.1054 C.2       7 UNK         0.5018 
     48 O          28.0861    3.3402   -9.8747 O.2       7 UNK        -0.5186 
     49 N          27.3017    1.2445   -9.4986 N.am      8 UNK        -0.4240 
     50 CA         27.3200    0.7700  -10.8850 C.3       8 UNK         0.0235 
     51 CB         26.4846   -0.5155  -11.0057 C.3       8 UNK        -0.2000 
     52 C          28.7501    0.5494  -11.4022 C.2       8 UNK         0.4941 
     53 O          29.0695    0.9789  -12.5110 O.2       8 UNK        -0.5273 
     54 N          29.5897   -0.0870  -10.5751 N.am      9 UNK        -0.4262 
     55 CA         31.0182   -0.2913  -10.8235 C.3       9 UNK         0.0264 
     56 CB         31.4922   -1.5035  -10.0058 C.3       9 UNK        -0.1955 
     57 C          31.8711    0.9532  -10.5082 C.2       9 UNK         0.5031 
     58 O          33.0393    0.9826  -10.8979 O.2       9 UNK        -0.5390 
     59 N          31.2800    1.9456   -9.8230 N.am      10 UNK        -0.4204 
     60 CA         31.8713    3.2140   -9.3801 C.3       10 UNK         0.0237 
     61 CB         32.2207    4.1108  -10.5869 C.3       10 UNK        -0.1985 
     62 C          33.0527    2.9977   -8.4158 C.2       10 UNK         0.4970 
     63 O          34.1365    3.5478   -8.6230 O.2       10 UNK        -0.4914 
     64 N          32.8077    2.1851   -7.3848 N.am      11 UNK        -0.4285 
     65 CA         33.7714    1.7851   -6.3507 C.3       11 UNK         0.1007 
     66 C          33.2644    2.0218   -4.8999 C.2       11 UNK         0.5703 
     67 N          32.0118    2.4064   -4.6829 N.am      11 UNK        -0.7361 
     68 O          34.0340    1.8816   -3.9523 O.2       11 UNK        -0.4986 
     69 C69        34.2772    0.3358   -6.5810 C.3       12 UNK        -0.0947 
     70 S70        32.9385   -0.9059   -6.5982 S.3       12 UNK        -0.2240 
     71 C71        33.2762   -1.8124   -5.0574 C.3       12 UNK         0.0194 
     72 H72        24.1683   -3.8022    0.3598 H         1 UNK         0.0906 
     73 H73        23.5166   -5.4330    0.2764 H         1 UNK         0.0906 
     74 H74        25.2489   -5.2041    0.4875 H         1 UNK         0.0906 
     75 H75        25.5266   -3.9851   -3.0994 H         1 UNK         0.3140 
     76 H76        26.5803   -3.4350   -0.4143 H         1 UNK         0.1085 
     77 H77        27.6170   -2.1668   -2.9769 H         1 UNK         0.0836 
     78 H78        27.8896   -3.8559   -2.7371 H         1 UNK         0.0836 
     79 H79        29.7718   -4.8643   -1.3907 H         1 UNK         0.0731 
     80 H80        31.1213   -3.8670   -0.9181 H         1 UNK         0.0731 
     81 H81        32.0792   -2.1909   -2.6442 H         1 UNK         0.1312 
     82 H82        32.0697   -3.6905   -6.6670 H         1 UNK         0.1406 
     83 H83        29.5027   -5.4417   -3.7163 H         1 UNK         0.1631 
     84 H84        29.5956   -6.4281   -5.8737 H         1 UNK         0.0717 
     85 H85        31.0653   -6.1755   -6.7774 H         1 UNK         0.0717 
     86 H86        27.0228   -5.1070   -6.8559 H         1 UNK         0.0934 
     87 H87        27.9895   -4.1582   -5.7618 H         1 UNK         0.0934 
     88 H88        27.0876   -3.1859   -8.5170 H         1 UNK         0.0739 
     89 H89        25.1815   -2.3969   -7.7696 H         1 UNK         0.3093 
     90 H90        23.5504   -1.6777   -6.5433 H         1 UNK         0.0818 
     91 H91        21.9860   -2.5264   -4.8273 H         1 UNK         0.0819 
     92 H92        22.9075   -3.8721   -5.4797 H         1 UNK         0.0819 
     93 H93        23.3136   -3.2186   -3.8993 H         1 UNK         0.0819 
     94 H94        23.6819   -0.8184   -3.8194 H         1 UNK         0.3041 
     95 H95        25.7864    2.0426   -4.3679 H         1 UNK         0.0784 
     96 H96        23.5257    2.8092   -5.1323 H         1 UNK         0.0793 
     97 H97        22.7672    1.9090   -3.8236 H         1 UNK         0.0793 
     98 H98        23.8266    3.2718   -3.4651 H         1 UNK         0.0793 
     99 H99        24.7288    0.0103   -2.5482 H         1 UNK         0.3024 
    100 H100       26.8132    1.1262    0.0684 H         1 UNK         0.1171 
    101 H101       23.8353    0.4046   -0.0382 H         1 UNK         0.0786 
    102 H102       24.5259    1.8599    0.6587 H         1 UNK         0.0786 
    103 H103       24.8741    0.2981    1.3818 H         1 UNK         0.0786 
    104 H104       27.2875   -0.9650   -0.4034 H         1 UNK         0.2977 
    105 H105       27.6593   -1.6963   -5.3075 H         1 UNK         0.3127 
    106 H106       30.1397   -0.6001   -5.8092 H         1 UNK         0.0770 
    107 H107       29.5867    0.9719   -3.8680 H         1 UNK         0.0814 
    108 H108       27.9550    0.3186   -3.8839 H         1 UNK         0.0814 
    109 H109       29.3415   -0.7293   -3.5547 H         1 UNK         0.0814 
    110 H110       27.0091    1.0577   -6.4950 H         1 UNK         0.2983 
    111 H111       28.4141    3.4938   -7.3803 H         1 UNK         0.0947 
    112 H112       26.1396    4.3501   -7.7867 H         1 UNK         0.0806 
    113 H113       26.2361    3.6666   -6.1735 H         1 UNK         0.0806 
    114 H114       25.4378    2.7729   -7.4691 H         1 UNK         0.0806 
    115 H115       27.0300    0.5809   -8.7874 H         1 UNK         0.3000 
    116 H116       26.8551    1.5359  -11.5101 H         1 UNK         0.0850 
    117 H117       25.4531   -0.3487  -10.6951 H         1 UNK         0.0810 
    118 H118       26.8918   -1.3251  -10.3994 H         1 UNK         0.0810 
    119 H119       26.4584   -0.8653  -12.0386 H         1 UNK         0.0810 
    120 H120       29.2270   -0.4589   -9.6954 H         1 UNK         0.3040 
    121 H121       31.1616   -0.5202  -11.8816 H         1 UNK         0.0766 
    122 H122       32.5621   -1.6746  -10.1318 H         1 UNK         0.0812 
    123 H123       30.9776   -2.4140  -10.3131 H         1 UNK         0.0812 
    124 H124       31.3050   -1.3635   -8.9416 H         1 UNK         0.0812 
    125 H125       30.3237    1.7928   -9.5363 H         1 UNK         0.3205 
    126 H126       31.0975    3.7258   -8.8054 H         1 UNK         0.0754 
    127 H127       32.5603    5.0934  -10.2571 H         1 UNK         0.0769 
    128 H128       31.3520    4.2663  -11.2270 H         1 UNK         0.0769 
    129 H129       33.0150    3.6806  -11.1978 H         1 UNK         0.0769 
    130 H130       31.8687    1.8078   -7.2744 H         1 UNK         0.2981 
    131 H131       34.6442    2.4355   -6.4281 H         1 UNK         0.0541 
    132 H132       31.3519    2.4680   -5.4471 H         1 UNK         0.3459 
    133 H133       31.7102    2.5771   -3.7376 H         1 UNK         0.3459 
    134 H134       34.7853    0.2813   -7.5449 H         1 UNK         0.0612 
    135 H135       35.0301    0.0652   -5.8387 H         1 UNK         0.0612 
    136 H136       34.2244   -2.3423   -5.1555 H         1 UNK         0.0624 
    137 H137       33.4020   -1.0881   -4.2509 H         1 UNK         0.0624 
@<TRIPOS>BOND
     1    1    2 1    
     2    1   72 1    
     3    1   73 1    
     4    1   74 1    
     5    2    3 2    
     6    2    4 am   BACKBONE|DICT|INTERRES
     7    4    5 1    
     8    4   75 1    
     9    5    6 1    
    10    5   35 1    
    11    5   76 1    
    12    6    7 1    
    13    6   77 1    
    14    6   78 1    
    15    7    8 1    
    16    8    9 1    
    17    8   79 1    
    18    8   80 1    
    19    9   10 ar   
    20    9   14 ar   
    21   10   11 ar   
    22   10   81 1    
    23   11   12 ar   
    24   11   71 1    
    25   12   13 ar   
    26   12   82 1    
    27   13   14 ar   
    28   13   15 1    
    29   14   83 1    
    30   15   16 1    
    31   15   84 1    
    32   15   85 1    
    33   16   17 1    
    34   17   18 1    
    35   17   86 1    
    36   17   87 1    
    37   18   19 1    
    38   18   37 1    
    39   18   88 1    
    40   19   20 am   BACKBONE|DICT|INTERRES
    41   19   89 1    
    42   20   21 2    
    43   20   22 1    
    44   22   23 1    
    45   22   24 1    
    46   22   90 1    
    47   23   91 1    
    48   23   92 1    
    49   23   93 1    
    50   24   25 am   BACKBONE|DICT|INTERRES
    51   24   94 1    
    52   25   26 2    
    53   25   27 1    
    54   27   28 1    
    55   27   29 1    
    56   27   95 1    
    57   28   96 1    
    58   28   97 1    
    59   28   98 1    
    60   29   30 am   BACKBONE|DICT|INTERRES
    61   29   99 1    
    62   30   31 2    
    63   30   32 1    
    64   32   33 1    
    65   32   34 1    
    66   32  100 1    
    67   33  101 1    
    68   33  102 1    
    69   33  103 1    
    70   34   35 am   BACKBONE|DICT|INTERRES
    71   34  104 1    
    72   35   36 2    
    73   37   38 2    
    74   37   39 am   BACKBONE|DICT|INTERRES
    75   39   40 1    
    76   39  105 1    
    77   40   41 1    
    78   40   42 1    
    79   40  106 1    
    80   41  107 1    
    81   41  108 1    
    82   41  109 1    
    83   42   43 2    
    84   42   44 am   BACKBONE|DICT|INTERRES
    85   44   45 1    
    86   44  110 1    
    87   45   46 1    
    88   45   47 1    
    89   45  111 1    
    90   46  112 1    
    91   46  113 1    
    92   46  114 1    
    93   47   48 2    
    94   47   49 am   BACKBONE|DICT|INTERRES
    95   49   50 1    
    96   49  115 1    
    97   50   51 1    
    98   50   52 1    
    99   50  116 1    
   100   51  117 1    
   101   51  118 1    
   102   51  119 1    
   103   52   53 2    
   104   52   54 am   BACKBONE|DICT|INTERRES
   105   54   55 1    
   106   54  120 1    
   107   55   56 1    
   108   55   57 1    
   109   55  121 1    
   110   56  122 1    
   111   56  123 1    
   112   56  124 1    
   113   57   58 2    
   114   57   59 am   BACKBONE|DICT|INTERRES
   115   59   60 1    
   116   59  125 1    
   117   60   61 1    
   118   60   62 1    
   119   60  126 1    
   120   61  127 1    
   121   61  128 1    
   122   61  129 1    
   123   62   63 2    
   124   62   64 am   BACKBONE|DICT|INTERRES
   125   64   65 1    
   126   64  130 1    
   127   65   66 1    
   128   65   69 1    
   129   65  131 1    
   130   66   67 am   BACKBONE|DICT|INTERRES
   131   66   68 2    
   132   67  132 1    
   133   67  133 1    
   134   69   70 1    
   135   69  134 1    
   136   69  135 1    
   137   70   71 1    
   138   71  136 1    
   139   71  137 1    
@<TRIPOS>SUBSTRUCTURE
     1 UNK         1 GROUP             0       ****    0 ROOT    
