@<TRIPOS>MOLECULE
3R137
137   139    1
SMALL
USER_CHARGES


@<TRIPOS>ATOM
      1 CA         22.9269   -4.7619   -1.3483 C.3       0 UNK        -0.2020 
      2 C          24.2871   -4.5147   -0.7128 C.2       0 UNK         0.4855 
      3 O          24.4410   -4.6884    0.4962 O.2       0 UNK        -0.5197 
      4 N          25.2727   -4.1083   -1.5172 N.am      1 UNK        -0.4892 
      5 CA         26.6321   -3.7713   -1.1034 C.3       1 UNK         0.0835 
      6 C6         27.5233   -5.0346   -0.9875 C.3       12 UNK        -0.0855 
      7 S7         29.0884   -4.7415   -0.0893 S.3       12 UNK        -0.2931 
      8 C8         30.3117   -5.5686   -1.1585 C.3       12 UNK         0.0378 
      9 C9         30.5730   -4.7995   -2.4466 C.ar      12 UNK        -0.0802 
     10 C10        31.5075   -3.7581   -2.4712 C.ar      12 UNK        -0.0944 
     11 C11        31.7581   -3.0585   -3.6566 C.ar      12 UNK        -0.0787 
     12 C12        31.0594   -3.4015   -4.8177 C.ar      12 UNK        -0.0862 
     13 C13        30.1346   -4.4471   -4.8080 C.ar      12 UNK        -0.0733 
     14 C14        29.9008   -5.1471   -3.6225 C.ar      12 UNK        -0.0832 
     15 C15        29.3946   -4.8298   -6.0791 C.3       12 UNK         0.0240 
     16 S16        27.7802   -4.0023   -6.1763 S.3       12 UNK        -0.2522 
     17 C17        28.2854   -2.2912   -6.5530 C.3       12 UNK        -0.0967 
     18 CA         27.0778   -1.4282   -6.9749 C.3       5 UNK         0.0660 
     19 N          26.0821   -1.3082   -5.9016 N.am      5 UNK        -0.4015 
     20 C          24.8489   -0.8009   -6.0496 C.2       4 UNK         0.4946 
     21 O          24.4124   -0.3551   -7.1119 O.2       4 UNK        -0.5353 
     22 CA         23.9741   -0.7450   -4.7896 C.3       4 UNK         0.0277 
     23 CB         23.4072   -2.1333   -4.4472 C.3       4 UNK        -0.1981 
     24 N          24.7387   -0.2194   -3.6572 N.am      4 UNK        -0.4209 
     25 C          24.9048    1.0886   -3.4099 C.2       3 UNK         0.4942 
     26 O          24.3388    1.9799   -4.0428 O.2       3 UNK        -0.5208 
     27 CA         25.8681    1.4835   -2.2741 C.3       3 UNK         0.0250 
     28 CB         25.0896    1.7218   -0.9702 C.3       3 UNK        -0.1990 
     29 N          26.9331    0.5076   -2.0274 N.am      3 UNK        -0.4232 
     30 C          27.9003    0.1873   -2.8994 C.2       2 UNK         0.4993 
     31 O          28.0165    0.6987   -4.0100 O.2       2 UNK        -0.5286 
     32 CA         28.8616   -0.9391   -2.4867 C.3       2 UNK         0.0209 
     33 CB         30.0499   -0.3638   -1.6997 C.3       2 UNK        -0.1931 
     34 N          28.2213   -2.0029   -1.7048 N.am      2 UNK        -0.4546 
     35 C          27.1633   -2.7240   -2.1000 C.2       1 UNK         0.5154 
     36 O          26.5818   -2.5478   -3.1780 O.2       1 UNK        -0.5181 
     37 C          27.5355   -0.0689   -7.5459 C.2       5 UNK         0.5014 
     38 O          27.9588   -0.0253   -8.7014 O.2       5 UNK        -0.5248 
     39 N          27.3825    1.0172   -6.7717 N.am      6 UNK        -0.4434 
     40 CA         27.5858    2.4158   -7.1661 C.3       6 UNK         0.0363 
     41 CB         27.2166    3.3353   -5.9916 C.3       6 UNK        -0.1936 
     42 C          26.8285    2.8506   -8.4351 C.2       6 UNK         0.5081 
     43 O          27.2848    3.7726   -9.1108 O.2       6 UNK        -0.5248 
     44 N          25.7363    2.1540   -8.7866 N.am      7 UNK        -0.4718 
     45 CA         25.0277    2.2955  -10.0644 C.3       7 UNK         0.0273 
     46 CB         23.7697    1.4135  -10.0400 C.3       7 UNK        -0.1935 
     47 C          25.8926    1.9652  -11.3003 C.2       7 UNK         0.5018 
     48 O          25.6082    2.4791  -12.3826 O.2       7 UNK        -0.5186 
     49 N          26.9367    1.1453  -11.1158 N.am      8 UNK        -0.4240 
     50 CA         27.9663    0.8256  -12.1064 C.3       8 UNK         0.0235 
     51 CB         27.9712   -0.6974  -12.3334 C.3       8 UNK        -0.2000 
     52 C          29.3488    1.3352  -11.6495 C.2       8 UNK         0.4941 
     53 O          30.3666    0.8340  -12.1323 O.2       8 UNK        -0.5273 
     54 N          29.3702    2.3063  -10.7220 N.am      9 UNK        -0.4262 
     55 CA         30.5225    2.8796  -10.0180 C.3       9 UNK         0.0264 
     56 CB         31.4998    3.5867  -10.9800 C.3       9 UNK        -0.1955 
     57 C          31.2307    1.8671   -9.1019 C.2       9 UNK         0.5031 
     58 O          31.1566    2.0085   -7.8801 O.2       9 UNK        -0.5390 
     59 N          31.8996    0.8731   -9.7038 N.am      10 UNK        -0.4204 
     60 CA         32.6850   -0.1863   -9.0591 C.3       10 UNK         0.0237 
     61 CB         31.7284   -1.2280   -8.4290 C.3       10 UNK        -0.1985 
     62 C          33.7324    0.3874   -8.0768 C.2       10 UNK         0.4970 
     63 O          34.4103    1.3609   -8.4129 O.2       10 UNK        -0.4914 
     64 N          33.8286   -0.2087   -6.8852 N.am      11 UNK        -0.4285 
     65 CA         34.5623    0.2981   -5.7156 C.3       11 UNK         0.1007 
     66 C          33.7736    1.3500   -4.8752 C.2       11 UNK         0.5703 
     67 N          32.6003    1.8133   -5.2912 N.am      11 UNK        -0.7361 
     68 O          34.2432    1.7711   -3.8209 O.2       11 UNK        -0.4986 
     69 C69        35.1583   -0.8563   -4.8482 C.3       12 UNK        -0.0947 
     70 S70        34.1792   -2.3971   -4.7727 S.3       12 UNK        -0.2240 
     71 C71        32.7845   -1.9367   -3.7005 C.3       12 UNK         0.0194 
     72 H72        22.1914   -4.0679   -0.9424 H         1 UNK         0.0906 
     73 H73        22.5921   -5.7768   -1.1351 H         1 UNK         0.0906 
     74 H74        22.9526   -4.6356   -2.4306 H         1 UNK         0.0906 
     75 H75        25.1037   -3.9265   -2.4994 H         1 UNK         0.3140 
     76 H76        26.5762   -3.2852   -0.1263 H         1 UNK         0.1085 
     77 H77        26.9906   -5.8075   -0.4312 H         1 UNK         0.0836 
     78 H78        27.7061   -5.4639   -1.9714 H         1 UNK         0.0836 
     79 H79        29.9772   -6.5841   -1.3770 H         1 UNK         0.0731 
     80 H80        31.2454   -5.6733   -0.6037 H         1 UNK         0.0731 
     81 H81        32.0401   -3.4962   -1.5672 H         1 UNK         0.1312 
     82 H82        31.2494   -2.8626   -5.7351 H         1 UNK         0.1406 
     83 H83        29.1923   -5.9637   -3.6212 H         1 UNK         0.1631 
     84 H84        29.2384   -5.9093   -6.1040 H         1 UNK         0.0717 
     85 H85        29.9892   -4.5889   -6.9617 H         1 UNK         0.0717 
     86 H86        28.7801   -1.8587   -5.6827 H         1 UNK         0.0934 
     87 H87        29.0286   -2.3256   -7.3523 H         1 UNK         0.0934 
     88 H88        26.5813   -1.9406   -7.8021 H         1 UNK         0.0739 
     89 H89        26.3490   -1.6917   -5.0001 H         1 UNK         0.3093 
     90 H90        23.1301   -0.0819   -4.9931 H         1 UNK         0.0818 
     91 H91        22.7726   -2.4997   -5.2551 H         1 UNK         0.0819 
     92 H92        24.1929   -2.8731   -4.2956 H         1 UNK         0.0819 
     93 H93        22.7957   -2.1005   -3.5454 H         1 UNK         0.0819 
     94 H94        25.2794   -0.8900   -3.1249 H         1 UNK         0.3041 
     95 H95        26.3434    2.4225   -2.5662 H         1 UNK         0.0784 
     96 H96        24.3057    2.4668   -1.1146 H         1 UNK         0.0793 
     97 H97        24.6100    0.8096   -0.6127 H         1 UNK         0.0793 
     98 H98        25.7424    2.0919   -0.1793 H         1 UNK         0.0793 
     99 H99        26.9196    0.0321   -1.1369 H         1 UNK         0.3024 
    100 H100       29.2435   -1.3962   -3.4011 H         1 UNK         0.1171 
    101 H101       30.7694   -1.1389   -1.4380 H         1 UNK         0.0786 
    102 H102       30.5820    0.3833   -2.2906 H         1 UNK         0.0786 
    103 H103       29.7286    0.1180   -0.7755 H         1 UNK         0.0786 
    104 H104       28.6582   -2.2433   -0.8254 H         1 UNK         0.2977 
    105 H105       27.1680    0.8650   -5.7909 H         1 UNK         0.3127 
    106 H106       28.6495    2.5373   -7.3702 H         1 UNK         0.0770 
    107 H107       26.1723    3.2162   -5.7010 H         1 UNK         0.0814 
    108 H108       27.3657    4.3839   -6.2530 H         1 UNK         0.0814 
    109 H109       27.8353    3.1329   -5.1175 H         1 UNK         0.0814 
    110 H110       25.4234    1.4072   -8.1764 H         1 UNK         0.2983 
    111 H111       24.7170    3.3384  -10.1566 H         1 UNK         0.0947 
    112 H112       24.0208    0.3579   -9.9276 H         1 UNK         0.0806 
    113 H113       23.1995    1.5180  -10.9642 H         1 UNK         0.0806 
    114 H114       23.1078    1.6880   -9.2183 H         1 UNK         0.0806 
    115 H115       27.1111    0.7727  -10.1837 H         1 UNK         0.3000 
    116 H116       27.7488    1.3158  -13.0574 H         1 UNK         0.0850 
    117 H117       28.6845   -0.9790  -13.1091 H         1 UNK         0.0810 
    118 H118       26.9915   -1.0532  -12.6525 H         1 UNK         0.0810 
    119 H119       28.2444   -1.2358  -11.4247 H         1 UNK         0.0810 
    120 H120       28.4758    2.6547  -10.3942 H         1 UNK         0.3040 
    121 H121       30.1101    3.6495   -9.3638 H         1 UNK         0.0766 
    122 H122       31.9458    2.9037  -11.7027 H         1 UNK         0.0812 
    123 H123       32.3182    4.0498  -10.4270 H         1 UNK         0.0812 
    124 H124       30.9982    4.3778  -11.5372 H         1 UNK         0.0812 
    125 H125       31.8216    0.8258  -10.7152 H         1 UNK         0.3205 
    126 H126       33.2468   -0.6814   -9.8522 H         1 UNK         0.0754 
    127 H127       32.2679   -2.1071   -8.0744 H         1 UNK         0.0769 
    128 H128       31.0011   -1.5800   -9.1614 H         1 UNK         0.0769 
    129 H129       31.1668   -0.8116   -7.5912 H         1 UNK         0.0769 
    130 H130       33.2490   -1.0137   -6.7030 H         1 UNK         0.2981 
    131 H131       35.4177    0.8628   -6.0907 H         1 UNK         0.0541 
    132 H132       32.2145    1.5712   -6.1971 H         1 UNK         0.3459 
    133 H133       32.1242    2.4952   -4.7239 H         1 UNK         0.3459 
    134 H134       35.3930   -0.5360   -3.8316 H         1 UNK         0.0612 
    135 H135       36.1201   -1.1397   -5.2778 H         1 UNK         0.0612 
    136 H136       32.3030   -1.0356   -4.0808 H         1 UNK         0.0624 
    137 H137       33.1569   -1.7011   -2.7025 H         1 UNK         0.0624 
@<TRIPOS>BOND
     1    1    2 1    
     2    1   72 1    
     3    1   73 1    
     4    1   74 1    
     5    2    3 2    
     6    2    4 am   BACKBONE|DICT|INTERRES
     7    4    5 1    
     8    4   75 1    
     9    5    6 1    
    10    5   35 1    
    11    5   76 1    
    12    6    7 1    
    13    6   77 1    
    14    6   78 1    
    15    7    8 1    
    16    8    9 1    
    17    8   79 1    
    18    8   80 1    
    19    9   10 ar   
    20    9   14 ar   
    21   10   11 ar   
    22   10   81 1    
    23   11   12 ar   
    24   11   71 1    
    25   12   13 ar   
    26   12   82 1    
    27   13   14 ar   
    28   13   15 1    
    29   14   83 1    
    30   15   16 1    
    31   15   84 1    
    32   15   85 1    
    33   16   17 1    
    34   17   18 1    
    35   17   86 1    
    36   17   87 1    
    37   18   19 1    
    38   18   37 1    
    39   18   88 1    
    40   19   20 am   BACKBONE|DICT|INTERRES
    41   19   89 1    
    42   20   21 2    
    43   20   22 1    
    44   22   23 1    
    45   22   24 1    
    46   22   90 1    
    47   23   91 1    
    48   23   92 1    
    49   23   93 1    
    50   24   25 am   BACKBONE|DICT|INTERRES
    51   24   94 1    
    52   25   26 2    
    53   25   27 1    
    54   27   28 1    
    55   27   29 1    
    56   27   95 1    
    57   28   96 1    
    58   28   97 1    
    59   28   98 1    
    60   29   30 am   BACKBONE|DICT|INTERRES
    61   29   99 1    
    62   30   31 2    
    63   30   32 1    
    64   32   33 1    
    65   32   34 1    
    66   32  100 1    
    67   33  101 1    
    68   33  102 1    
    69   33  103 1    
    70   34   35 am   BACKBONE|DICT|INTERRES
    71   34  104 1    
    72   35   36 2    
    73   37   38 2    
    74   37   39 am   BACKBONE|DICT|INTERRES
    75   39   40 1    
    76   39  105 1    
    77   40   41 1    
    78   40   42 1    
    79   40  106 1    
    80   41  107 1    
    81   41  108 1    
    82   41  109 1    
    83   42   43 2    
    84   42   44 am   BACKBONE|DICT|INTERRES
    85   44   45 1    
    86   44  110 1    
    87   45   46 1    
    88   45   47 1    
    89   45  111 1    
    90   46  112 1    
    91   46  113 1    
    92   46  114 1    
    93   47   48 2    
    94   47   49 am   BACKBONE|DICT|INTERRES
    95   49   50 1    
    96   49  115 1    
    97   50   51 1    
    98   50   52 1    
    99   50  116 1    
   100   51  117 1    
   101   51  118 1    
   102   51  119 1    
   103   52   53 2    
   104   52   54 am   BACKBONE|DICT|INTERRES
   105   54   55 1    
   106   54  120 1    
   107   55   56 1    
   108   55   57 1    
   109   55  121 1    
   110   56  122 1    
   111   56  123 1    
   112   56  124 1    
   113   57   58 2    
   114   57   59 am   BACKBONE|DICT|INTERRES
   115   59   60 1    
   116   59  125 1    
   117   60   61 1    
   118   60   62 1    
   119   60  126 1    
   120   61  127 1    
   121   61  128 1    
   122   61  129 1    
   123   62   63 2    
   124   62   64 am   BACKBONE|DICT|INTERRES
   125   64   65 1    
   126   64  130 1    
   127   65   66 1    
   128   65   69 1    
   129   65  131 1    
   130   66   67 am   BACKBONE|DICT|INTERRES
   131   66   68 2    
   132   67  132 1    
   133   67  133 1    
   134   69   70 1    
   135   69  134 1    
   136   69  135 1    
   137   70   71 1    
   138   71  136 1    
   139   71  137 1    
@<TRIPOS>SUBSTRUCTURE
     1 UNK         1 GROUP             0       ****    0 ROOT    
