@<TRIPOS>MOLECULE
3R137
137   139    1
SMALL
USER_CHARGES


@<TRIPOS>ATOM
      1 CA         25.9088   -5.7271   -2.1388 C.3       0 UNK        -0.2020 
      2 C          26.4264   -5.4865   -0.7208 C.2       0 UNK         0.4855 
      3 O          26.0332   -6.2236    0.1808 O.2       0 UNK        -0.5197 
      4 N          27.2896   -4.4956   -0.4446 N.am      1 UNK        -0.4892 
      5 CA         27.8898   -3.4894   -1.3355 C.3       1 UNK         0.0835 
      6 C6         28.8129   -4.0781   -2.4409 C.3       12 UNK        -0.0855 
      7 S7         30.3540   -4.8204   -1.8016 S.3       12 UNK        -0.2931 
      8 C8         31.4699   -3.4000   -1.4747 C.3       12 UNK         0.0378 
      9 C9         31.2544   -2.1928   -2.3836 C.ar      12 UNK        -0.0802 
     10 C10        31.6059   -2.2413   -3.7374 C.ar      12 UNK        -0.0944 
     11 C11        31.3544   -1.1472   -4.5807 C.ar      12 UNK        -0.0787 
     12 C12        30.7697    0.0036   -4.0440 C.ar      12 UNK        -0.0862 
     13 C13        30.4322    0.0715   -2.6918 C.ar      12 UNK        -0.0733 
     14 C14        30.6819   -1.0275   -1.8661 C.ar      12 UNK        -0.0832 
     15 C15        29.7847    1.3215   -2.1177 C.3       12 UNK         0.0240 
     16 S16        28.0417    1.0044   -1.7164 S.3       12 UNK        -0.2522 
     17 C17        27.1255    2.0471   -2.8948 C.3       12 UNK        -0.0967 
     18 CA         27.3286    1.7598   -4.4095 C.3       5 UNK         0.0660 
     19 N          27.2417    0.3446   -4.7912 N.am      5 UNK        -0.4015 
     20 C          27.4873   -0.1277   -6.0271 C.2       4 UNK         0.4946 
     21 O          27.9579    0.5493   -6.9430 O.2       4 UNK        -0.5353 
     22 CA         27.0971   -1.5847   -6.3212 C.3       4 UNK         0.0277 
     23 CB         28.2665   -2.5376   -6.0421 C.3       4 UNK        -0.1981 
     24 N          25.9275   -1.9991   -5.5477 N.am      4 UNK        -0.4209 
     25 C          24.6652   -1.6636   -5.8445 C.2       3 UNK         0.4942 
     26 O          24.3518   -0.9898   -6.8252 O.2       3 UNK        -0.5208 
     27 CA         23.5703   -2.1317   -4.8686 C.3       3 UNK         0.0250 
     28 CB         23.1048   -3.5528   -5.2236 C.3       3 UNK        -0.1990 
     29 N          23.9878   -2.0913   -3.4639 N.am      3 UNK        -0.4232 
     30 C          24.2876   -0.9672   -2.7993 C.2       2 UNK         0.4993 
     31 O          24.2154    0.1584   -3.2942 O.2       2 UNK        -0.5286 
     32 CA         24.8055   -1.1278   -1.3577 C.3       2 UNK         0.0209 
     33 CB         23.6294   -1.2917   -0.3817 C.3       2 UNK        -0.1931 
     34 N          25.7794   -2.2115   -1.1368 N.am      2 UNK        -0.4546 
     35 C          26.8718   -2.4597   -1.8780 C.2       1 UNK         0.5154 
     36 O          27.0889   -1.9099   -2.9557 O.2       1 UNK        -0.5181 
     37 C          26.3194    2.6015   -5.2153 C.2       5 UNK         0.5014 
     38 O          26.7028    3.6191   -5.7919 O.2       5 UNK        -0.5248 
     39 N          25.0556    2.1476   -5.2496 N.am      6 UNK        -0.4434 
     40 CA         23.9521    2.7789   -5.9788 C.3       6 UNK         0.0363 
     41 CB         22.6320    2.0755   -5.6256 C.3       6 UNK        -0.1936 
     42 C          24.1660    2.8022   -7.5014 C.2       6 UNK         0.5081 
     43 O          23.8751    3.8162   -8.1363 O.2       6 UNK        -0.5248 
     44 N          24.6932    1.7020   -8.0565 N.am      7 UNK        -0.4718 
     45 CA         25.0801    1.5920   -9.4668 C.3       7 UNK         0.0273 
     46 CB         25.2908    0.1098   -9.8155 C.3       7 UNK        -0.1935 
     47 C          26.3414    2.4006   -9.8256 C.2       7 UNK         0.5018 
     48 O          26.5487    2.6810  -11.0068 O.2       7 UNK        -0.5186 
     49 N          27.1595    2.7327   -8.8145 N.am      8 UNK        -0.4240 
     50 CA         28.4800    3.3669   -8.8919 C.3       8 UNK         0.0235 
     51 CB         28.3674    4.8216   -9.3954 C.3       8 UNK        -0.2000 
     52 C          29.4746    2.5123   -9.7005 C.2       8 UNK         0.4941 
     53 O          30.1536    3.0257  -10.5931 O.2       8 UNK        -0.5273 
     54 N          29.5075    1.2080   -9.3947 N.am      9 UNK        -0.4262 
     55 CA         30.3383    0.2180  -10.0812 C.3       9 UNK         0.0264 
     56 CB         29.8316   -1.1899   -9.7322 C.3       9 UNK        -0.1955 
     57 C          31.8294    0.3667   -9.7331 C.2       9 UNK         0.5031 
     58 O          32.1705    0.7782   -8.6216 O.2       9 UNK        -0.5390 
     59 N          32.6961   -0.0069  -10.6814 N.am      10 UNK        -0.4204 
     60 CA         34.1521    0.0048  -10.5351 C.3       10 UNK         0.0237 
     61 CB         34.7902    0.2670  -11.9128 C.3       10 UNK        -0.1985 
     62 C          34.6355   -1.3111   -9.9008 C.2       10 UNK         0.4970 
     63 O          35.2089   -2.1539  -10.5937 O.2       10 UNK        -0.4914 
     64 N          34.3654   -1.4763   -8.6005 N.am      11 UNK        -0.4285 
     65 CA         34.7295   -2.6715   -7.8161 C.3       11 UNK         0.1007 
     66 C          36.2501   -2.8184   -7.5134 C.2       11 UNK         0.5703 
     67 N          37.0724   -1.7944   -7.7109 N.am      11 UNK        -0.7361 
     68 O          36.6923   -3.8867   -7.0973 O.2       11 UNK        -0.4986 
     69 C69        33.8977   -2.7972   -6.5117 C.3       12 UNK        -0.0947 
     70 S70        32.1000   -2.7536   -6.8157 S.3       12 UNK        -0.2240 
     71 C71        31.6694   -1.1412   -6.0764 C.3       12 UNK         0.0194 
     72 H72        25.9248   -4.8439   -2.7711 H         1 UNK         0.0906 
     73 H73        26.5017   -6.5035   -2.6213 H         1 UNK         0.0906 
     74 H74        24.8768   -6.0753   -2.1019 H         1 UNK         0.0906 
     75 H75        27.5925   -4.4151    0.5168 H         1 UNK         0.3140 
     76 H76        28.5291   -2.8856   -0.6898 H         1 UNK         0.1085 
     77 H77        29.0949   -3.3243   -3.1698 H         1 UNK         0.0836 
     78 H78        28.2945   -4.8362   -3.0255 H         1 UNK         0.0836 
     79 H79        32.5023   -3.7390   -1.5714 H         1 UNK         0.0731 
     80 H80        31.3509   -3.1094   -0.4298 H         1 UNK         0.0731 
     81 H81        32.0486   -3.1474   -4.1248 H         1 UNK         0.1312 
     82 H82        30.5668    0.8483   -4.6884 H         1 UNK         0.1406 
     83 H83        30.4071   -0.9768   -0.8213 H         1 UNK         0.1631 
     84 H84        29.8740    2.1655   -2.8027 H         1 UNK         0.0717 
     85 H85        30.3089    1.6121   -1.2063 H         1 UNK         0.0717 
     86 H86        26.0731    1.9469   -2.6231 H         1 UNK         0.0934 
     87 H87        27.3802    3.0872   -2.6810 H         1 UNK         0.0934 
     88 H88        28.3287    2.0981   -4.6864 H         1 UNK         0.0739 
     89 H89        26.9594   -0.3107   -4.0677 H         1 UNK         0.3093 
     90 H90        26.8482   -1.6633   -7.3812 H         1 UNK         0.0818 
     91 H91        28.7336   -2.3245   -5.0828 H         1 UNK         0.0819 
     92 H92        27.9529   -3.5814   -6.0457 H         1 UNK         0.0819 
     93 H93        29.0381   -2.4329   -6.8021 H         1 UNK         0.0819 
     94 H94        26.1188   -2.4403   -4.6560 H         1 UNK         0.3041 
     95 H95        22.7201   -1.4558   -4.9828 H         1 UNK         0.0784 
     96 H96        23.9051   -4.2842   -5.1029 H         1 UNK         0.0793 
     97 H97        22.7698   -3.6047   -6.2607 H         1 UNK         0.0793 
     98 H98        22.2672   -3.8640   -4.5991 H         1 UNK         0.0793 
     99 H99        24.0727   -2.9726   -2.9800 H         1 UNK         0.3024 
    100 H100       25.3166   -0.1955   -1.1099 H         1 UNK         0.1171 
    101 H101       23.9643   -1.2489    0.6549 H         1 UNK         0.0786 
    102 H102       22.8962   -0.4944   -0.5144 H         1 UNK         0.0786 
    103 H103       23.1108   -2.2399   -0.5284 H         1 UNK         0.0786 
    104 H104       25.6774   -2.7326   -0.2774 H         1 UNK         0.2977 
    105 H105       24.8183    1.3284   -4.6933 H         1 UNK         0.3127 
    106 H106       23.8863    3.8149   -5.6401 H         1 UNK         0.0770 
    107 H107       22.6437    1.0248   -5.9170 H         1 UNK         0.0814 
    108 H108       21.7900    2.5466   -6.1344 H         1 UNK         0.0814 
    109 H109       22.4319    2.1221   -4.5549 H         1 UNK         0.0814 
    110 H110       24.8194    0.8743   -7.4813 H         1 UNK         0.2983 
    111 H111       24.2602    1.9760  -10.0777 H         1 UNK         0.0947 
    112 H112       25.5316   -0.0135  -10.8723 H         1 UNK         0.0806 
    113 H113       24.3942   -0.4776   -9.6167 H         1 UNK         0.0806 
    114 H114       26.1107   -0.3237   -9.2423 H         1 UNK         0.0806 
    115 H115       26.8959    2.4176   -7.8891 H         1 UNK         0.3000 
    116 H116       28.8625    3.3983   -7.8704 H         1 UNK         0.0850 
    117 H117       29.3333    5.3256   -9.3476 H         1 UNK         0.0810 
    118 H118       27.6705    5.3968   -8.7856 H         1 UNK         0.0810 
    119 H119       28.0271    4.8691  -10.4302 H         1 UNK         0.0810 
    120 H120       28.9559    0.8857   -8.6033 H         1 UNK         0.3040 
    121 H121       30.2178    0.3690  -11.1563 H         1 UNK         0.0766 
    122 H122       28.7884   -1.3200  -10.0208 H         1 UNK         0.0812 
    123 H123       29.9094   -1.3881   -8.6651 H         1 UNK         0.0812 
    124 H124       30.4101   -1.9575  -10.2478 H         1 UNK         0.0812 
    125 H125       32.3369   -0.3756  -11.5508 H         1 UNK         0.3205 
    126 H126       34.4490    0.8223   -9.8741 H         1 UNK         0.0754 
    127 H127       34.4797    1.2317  -12.3148 H         1 UNK         0.0769 
    128 H128       34.5217   -0.5003  -12.6402 H         1 UNK         0.0769 
    129 H129       35.8787    0.2828  -11.8417 H         1 UNK         0.0769 
    130 H130       33.8449   -0.7558   -8.1179 H         1 UNK         0.2981 
    131 H131       34.4754   -3.5360   -8.4328 H         1 UNK         0.0541 
    132 H132       36.7215   -0.9134   -8.0494 H         1 UNK         0.3459 
    133 H133       38.0547   -1.9057   -7.5149 H         1 UNK         0.3459 
    134 H134       34.1735   -2.0143   -5.8029 H         1 UNK         0.0612 
    135 H135       34.1160   -3.7430   -6.0126 H         1 UNK         0.0612 
    136 H136       30.8002   -0.7536   -6.6083 H         1 UNK         0.0624 
    137 H137       32.4746   -0.4301   -6.2618 H         1 UNK         0.0624 
@<TRIPOS>BOND
     1    1    2 1    
     2    1   72 1    
     3    1   73 1    
     4    1   74 1    
     5    2    3 2    
     6    2    4 am   BACKBONE|DICT|INTERRES
     7    4    5 1    
     8    4   75 1    
     9    5    6 1    
    10    5   35 1    
    11    5   76 1    
    12    6    7 1    
    13    6   77 1    
    14    6   78 1    
    15    7    8 1    
    16    8    9 1    
    17    8   79 1    
    18    8   80 1    
    19    9   10 ar   
    20    9   14 ar   
    21   10   11 ar   
    22   10   81 1    
    23   11   12 ar   
    24   11   71 1    
    25   12   13 ar   
    26   12   82 1    
    27   13   14 ar   
    28   13   15 1    
    29   14   83 1    
    30   15   16 1    
    31   15   84 1    
    32   15   85 1    
    33   16   17 1    
    34   17   18 1    
    35   17   86 1    
    36   17   87 1    
    37   18   19 1    
    38   18   37 1    
    39   18   88 1    
    40   19   20 am   BACKBONE|DICT|INTERRES
    41   19   89 1    
    42   20   21 2    
    43   20   22 1    
    44   22   23 1    
    45   22   24 1    
    46   22   90 1    
    47   23   91 1    
    48   23   92 1    
    49   23   93 1    
    50   24   25 am   BACKBONE|DICT|INTERRES
    51   24   94 1    
    52   25   26 2    
    53   25   27 1    
    54   27   28 1    
    55   27   29 1    
    56   27   95 1    
    57   28   96 1    
    58   28   97 1    
    59   28   98 1    
    60   29   30 am   BACKBONE|DICT|INTERRES
    61   29   99 1    
    62   30   31 2    
    63   30   32 1    
    64   32   33 1    
    65   32   34 1    
    66   32  100 1    
    67   33  101 1    
    68   33  102 1    
    69   33  103 1    
    70   34   35 am   BACKBONE|DICT|INTERRES
    71   34  104 1    
    72   35   36 2    
    73   37   38 2    
    74   37   39 am   BACKBONE|DICT|INTERRES
    75   39   40 1    
    76   39  105 1    
    77   40   41 1    
    78   40   42 1    
    79   40  106 1    
    80   41  107 1    
    81   41  108 1    
    82   41  109 1    
    83   42   43 2    
    84   42   44 am   BACKBONE|DICT|INTERRES
    85   44   45 1    
    86   44  110 1    
    87   45   46 1    
    88   45   47 1    
    89   45  111 1    
    90   46  112 1    
    91   46  113 1    
    92   46  114 1    
    93   47   48 2    
    94   47   49 am   BACKBONE|DICT|INTERRES
    95   49   50 1    
    96   49  115 1    
    97   50   51 1    
    98   50   52 1    
    99   50  116 1    
   100   51  117 1    
   101   51  118 1    
   102   51  119 1    
   103   52   53 2    
   104   52   54 am   BACKBONE|DICT|INTERRES
   105   54   55 1    
   106   54  120 1    
   107   55   56 1    
   108   55   57 1    
   109   55  121 1    
   110   56  122 1    
   111   56  123 1    
   112   56  124 1    
   113   57   58 2    
   114   57   59 am   BACKBONE|DICT|INTERRES
   115   59   60 1    
   116   59  125 1    
   117   60   61 1    
   118   60   62 1    
   119   60  126 1    
   120   61  127 1    
   121   61  128 1    
   122   61  129 1    
   123   62   63 2    
   124   62   64 am   BACKBONE|DICT|INTERRES
   125   64   65 1    
   126   64  130 1    
   127   65   66 1    
   128   65   69 1    
   129   65  131 1    
   130   66   67 am   BACKBONE|DICT|INTERRES
   131   66   68 2    
   132   67  132 1    
   133   67  133 1    
   134   69   70 1    
   135   69  134 1    
   136   69  135 1    
   137   70   71 1    
   138   71  136 1    
   139   71  137 1    
@<TRIPOS>SUBSTRUCTURE
     1 UNK         1 GROUP             0       ****    0 ROOT    
