@<TRIPOS>MOLECULE
3R137
137   139    1
SMALL
USER_CHARGES


@<TRIPOS>ATOM
      1 CA         29.4045   -0.4227   -3.1689 C.3       0 UNK        -0.2020 
      2 C          30.0463   -0.6055   -1.7956 C.2       0 UNK         0.4855 
      3 O          30.8316    0.2442   -1.3815 O.2       0 UNK        -0.5197 
      4 N          29.7651   -1.6906   -1.0606 N.am      1 UNK        -0.4892 
      5 CA         28.8083   -2.7534   -1.3910 C.3       1 UNK         0.0835 
      6 C6         29.1183   -4.0500   -0.5971 C.3       12 UNK        -0.0855 
      7 S7         28.6797   -5.5551   -1.5338 S.3       12 UNK        -0.2931 
      8 C8         30.2691   -5.9796   -2.3246 C.3       12 UNK         0.0378 
      9 C9         30.6768   -4.9331   -3.3519 C.ar      12 UNK        -0.0802 
     10 C10        31.6480   -3.9766   -3.0421 C.ar      12 UNK        -0.0944 
     11 C11        31.9755   -2.9777   -3.9627 C.ar      12 UNK        -0.0787 
     12 C12        31.3339   -2.9476   -5.2050 C.ar      12 UNK        -0.0862 
     13 C13        30.3674   -3.9028   -5.5335 C.ar      12 UNK        -0.0733 
     14 C14        30.0554   -4.9028   -4.6035 C.ar      12 UNK        -0.0832 
     15 C15        29.6980   -3.8401   -6.9054 C.3       12 UNK         0.0240 
     16 S16        27.9635   -4.4098   -6.9321 S.3       12 UNK        -0.2522 
     17 C17        27.1130   -3.1081   -5.9800 C.3       12 UNK        -0.0967 
     18 CA         26.4762   -2.0425   -6.9124 C.3       5 UNK         0.0660 
     19 N          25.0981   -1.7170   -6.5445 N.am      5 UNK        -0.4015 
     20 C          24.2082   -1.1488   -7.3712 C.2       4 UNK         0.4946 
     21 O          24.4406   -0.8878   -8.5514 O.2       4 UNK        -0.5353 
     22 CA         22.8368   -0.7825   -6.7761 C.3       4 UNK         0.0277 
     23 CB         21.8585   -1.9598   -6.9136 C.3       4 UNK        -0.1981 
     24 N          22.9166   -0.3729   -5.3714 N.am      4 UNK        -0.4209 
     25 C          23.5261    0.7430   -4.9466 C.2       3 UNK         0.4942 
     26 O          24.0217    1.5788   -5.7016 O.2       3 UNK        -0.5208 
     27 CA         23.6609    0.9242   -3.4238 C.3       3 UNK         0.0250 
     28 CB         22.4163    1.6209   -2.8517 C.3       3 UNK        -0.1990 
     29 N          23.9081   -0.3268   -2.6923 N.am      3 UNK        -0.4232 
     30 C          24.9527   -1.1398   -2.9032 C.2       2 UNK         0.4993 
     31 O          25.7970   -0.9510   -3.7833 O.2       2 UNK        -0.5286 
     32 CA         25.0357   -2.4090   -2.0394 C.3       2 UNK         0.0209 
     33 CB         24.1817   -3.5292   -2.6561 C.3       2 UNK        -0.1931 
     34 N          26.4210   -2.8731   -1.9339 N.am      2 UNK        -0.4546 
     35 C          27.3557   -2.2748   -1.1861 C.2       1 UNK         0.5154 
     36 O          27.1085   -1.3786   -0.3743 O.2       1 UNK        -0.5181 
     37 C          27.3299   -0.7657   -6.9992 C.2       5 UNK         0.5014 
     38 O          28.0974   -0.6269   -7.9489 O.2       5 UNK        -0.5248 
     39 N          27.1426    0.1651   -6.0491 N.am      6 UNK        -0.4434 
     40 CA         27.7581    1.4969   -6.0553 C.3       6 UNK         0.0363 
     41 CB         27.3816    2.2666   -4.7779 C.3       6 UNK        -0.1936 
     42 C          27.3806    2.3213   -7.2981 C.2       6 UNK         0.5081 
     43 O          28.2498    2.9618   -7.8891 O.2       6 UNK        -0.5248 
     44 N          26.0981    2.2663   -7.6851 N.am      7 UNK        -0.4718 
     45 CA         25.5721    2.8864   -8.9028 C.3       7 UNK         0.0273 
     46 CB         24.0373    2.8073   -8.8957 C.3       7 UNK        -0.1935 
     47 C          26.1424    2.2681  -10.1920 C.2       7 UNK         0.5018 
     48 O          26.3539    2.9979  -11.1614 O.2       7 UNK        -0.5186 
     49 N          26.3815    0.9487  -10.1826 N.am      8 UNK        -0.4240 
     50 CA         26.9979    0.2127  -11.2859 C.3       8 UNK         0.0235 
     51 CB         26.7228   -1.2935  -11.1348 C.3       8 UNK        -0.2000 
     52 C          28.5042    0.4983  -11.4026 C.2       8 UNK         0.4941 
     53 O          28.9522    0.9216  -12.4694 O.2       8 UNK        -0.5273 
     54 N          29.2542    0.2650  -10.3175 N.am      9 UNK        -0.4262 
     55 CA         30.7042    0.4274  -10.2413 C.3       9 UNK         0.0264 
     56 CB         31.4216   -0.6372  -11.1013 C.3       9 UNK        -0.1955 
     57 C          31.1456    0.3499   -8.7737 C.2       9 UNK         0.5031 
     58 O          31.4439   -0.7413   -8.2824 O.2       9 UNK        -0.5390 
     59 N          31.1835    1.5045   -8.0957 N.am      10 UNK        -0.4204 
     60 CA         31.7404    1.6488   -6.7472 C.3       10 UNK         0.0237 
     61 CB         31.4315    3.0573   -6.2120 C.3       10 UNK        -0.1985 
     62 C          33.2591    1.3952   -6.7252 C.2       10 UNK         0.4970 
     63 O          33.9531    1.7303   -7.6888 O.2       10 UNK        -0.4914 
     64 N          33.7397    0.8283   -5.6150 N.am      11 UNK        -0.4285 
     65 CA         35.1568    0.5291   -5.3671 C.3       11 UNK         0.1007 
     66 C          35.9953    1.8129   -5.1211 C.2       11 UNK         0.5703 
     67 N          37.2641    1.8079   -5.5067 N.am      11 UNK        -0.7361 
     68 O          35.5199    2.7937   -4.5509 O.2       11 UNK        -0.4986 
     69 C69        35.3248   -0.4747   -4.1959 C.3       12 UNK        -0.0947 
     70 S70        34.5302   -2.0811   -4.5384 S.3       12 UNK        -0.2240 
     71 C71        32.9833   -1.8989   -3.6011 C.3       12 UNK         0.0194 
     72 H72        29.7831    0.4786   -3.6501 H         1 UNK         0.0906 
     73 H73        29.6213   -1.2608   -3.8272 H         1 UNK         0.0906 
     74 H74        28.3245   -0.3256   -3.0783 H         1 UNK         0.0906 
     75 H75        30.1759   -1.7571   -0.1406 H         1 UNK         0.3140 
     76 H76        28.9277   -2.9698   -2.4534 H         1 UNK         0.1085 
     77 H77        28.6051   -4.0645    0.3667 H         1 UNK         0.0836 
     78 H78        30.1808   -4.1082   -0.3553 H         1 UNK         0.0836 
     79 H79        31.0398   -6.0982   -1.5612 H         1 UNK         0.0731 
     80 H80        30.1734   -6.9504   -2.8132 H         1 UNK         0.0731 
     81 H81        32.1282   -3.9922   -2.0733 H         1 UNK         0.1312 
     82 H82        31.5871   -2.1726   -5.9172 H         1 UNK         0.1406 
     83 H83        29.3121   -5.6518   -4.8396 H         1 UNK         0.1631 
     84 H84        30.2745   -4.4576   -7.5949 H         1 UNK         0.0717 
     85 H85        29.7344   -2.8235   -7.3012 H         1 UNK         0.0717 
     86 H86        26.3419   -3.6147   -5.3983 H         1 UNK         0.0934 
     87 H87        27.7865   -2.6730   -5.2383 H         1 UNK         0.0934 
     88 H88        26.4275   -2.4520   -7.9241 H         1 UNK         0.0739 
     89 H89        24.8647   -1.8095   -5.5660 H         1 UNK         0.3093 
     90 H90        22.4430    0.0588   -7.3507 H         1 UNK         0.0818 
     91 H91        20.8601   -1.6885   -6.5701 H         1 UNK         0.0819 
     92 H92        21.7670   -2.2693   -7.9559 H         1 UNK         0.0819 
     93 H93        22.1863   -2.8299   -6.3433 H         1 UNK         0.0819 
     94 H94        22.5211   -0.9979   -4.6842 H         1 UNK         0.3041 
     95 H95        24.5216    1.5738   -3.2520 H         1 UNK         0.0784 
     96 H96        22.2249    2.5628   -3.3682 H         1 UNK         0.0793 
     97 H97        21.5222    1.0048   -2.9557 H         1 UNK         0.0793 
     98 H98        22.5428    1.8549   -1.7944 H         1 UNK         0.0793 
     99 H99        23.2481   -0.5592   -1.9636 H         1 UNK         0.3024 
    100 H100       24.6616   -2.1814   -1.0384 H         1 UNK         0.1171 
    101 H101       23.1326   -3.2368   -2.7177 H         1 UNK         0.0786 
    102 H102       24.2257   -4.4364   -2.0529 H         1 UNK         0.0786 
    103 H103       24.5091   -3.7836   -3.6648 H         1 UNK         0.0786 
    104 H104       26.6996   -3.6132   -2.5619 H         1 UNK         0.2977 
    105 H105       26.5289   -0.0605   -5.2691 H         1 UNK         0.3127 
    106 H106       28.8384    1.3491   -6.0654 H         1 UNK         0.0770 
    107 H107       26.3194    2.5076   -4.7485 H         1 UNK         0.0814 
    108 H108       27.9262    3.2100   -4.7231 H         1 UNK         0.0814 
    109 H109       27.6157    1.7070   -3.8751 H         1 UNK         0.0814 
    110 H110       25.4305    1.7840   -7.0896 H         1 UNK         0.2983 
    111 H111       25.8603    3.9398   -8.8894 H         1 UNK         0.0947 
    112 H112       23.6170    3.2953   -9.7761 H         1 UNK         0.0806 
    113 H113       23.6185    3.3019   -8.0190 H         1 UNK         0.0806 
    114 H114       23.6868    1.7748   -8.8958 H         1 UNK         0.0806 
    115 H115       26.1411    0.4187   -9.3543 H         1 UNK         0.3000 
    116 H116       26.5262    0.5413  -12.2147 H         1 UNK         0.0850 
    117 H117       27.1480   -1.8518  -11.9698 H         1 UNK         0.0810 
    118 H118       25.6523   -1.4995  -11.1180 H         1 UNK         0.0810 
    119 H119       27.1529   -1.7001  -10.2198 H         1 UNK         0.0810 
    120 H120       28.8054   -0.0655   -9.4596 H         1 UNK         0.3040 
    121 H121       30.9671    1.4153  -10.6254 H         1 UNK         0.0766 
    122 H122       32.5029   -0.5789  -10.9706 H         1 UNK         0.0812 
    123 H123       31.2210   -0.5022  -12.1638 H         1 UNK         0.0812 
    124 H124       31.1138   -1.6475  -10.8286 H         1 UNK         0.0812 
    125 H125       30.8882    2.3529   -8.5576 H         1 UNK         0.3205 
    126 H126       31.2528    0.9127   -6.1043 H         1 UNK         0.0754 
    127 H127       31.8105    3.1820   -5.1966 H         1 UNK         0.0769 
    128 H128       30.3602    3.2519   -6.1803 H         1 UNK         0.0769 
    129 H129       31.8924    3.8311   -6.8276 H         1 UNK         0.0769 
    130 H130       33.1125    0.6376   -4.8504 H         1 UNK         0.2981 
    131 H131       35.5470    0.0547   -6.2702 H         1 UNK         0.0541 
    132 H132       37.8289    2.6266   -5.3423 H         1 UNK         0.3459 
    133 H133       37.6680    1.0047   -5.9633 H         1 UNK         0.3459 
    134 H134       34.9343   -0.0586   -3.2651 H         1 UNK         0.0612 
    135 H135       36.3832   -0.6734   -4.0169 H         1 UNK         0.0612 
    136 H136       33.2087   -1.9181   -2.5337 H         1 UNK         0.0624 
    137 H137       32.5390   -0.9244   -3.8025 H         1 UNK         0.0624 
@<TRIPOS>BOND
     1    1    2 1    
     2    1   72 1    
     3    1   73 1    
     4    1   74 1    
     5    2    3 2    
     6    2    4 am   BACKBONE|DICT|INTERRES
     7    4    5 1    
     8    4   75 1    
     9    5    6 1    
    10    5   35 1    
    11    5   76 1    
    12    6    7 1    
    13    6   77 1    
    14    6   78 1    
    15    7    8 1    
    16    8    9 1    
    17    8   79 1    
    18    8   80 1    
    19    9   10 ar   
    20    9   14 ar   
    21   10   11 ar   
    22   10   81 1    
    23   11   12 ar   
    24   11   71 1    
    25   12   13 ar   
    26   12   82 1    
    27   13   14 ar   
    28   13   15 1    
    29   14   83 1    
    30   15   16 1    
    31   15   84 1    
    32   15   85 1    
    33   16   17 1    
    34   17   18 1    
    35   17   86 1    
    36   17   87 1    
    37   18   19 1    
    38   18   37 1    
    39   18   88 1    
    40   19   20 am   BACKBONE|DICT|INTERRES
    41   19   89 1    
    42   20   21 2    
    43   20   22 1    
    44   22   23 1    
    45   22   24 1    
    46   22   90 1    
    47   23   91 1    
    48   23   92 1    
    49   23   93 1    
    50   24   25 am   BACKBONE|DICT|INTERRES
    51   24   94 1    
    52   25   26 2    
    53   25   27 1    
    54   27   28 1    
    55   27   29 1    
    56   27   95 1    
    57   28   96 1    
    58   28   97 1    
    59   28   98 1    
    60   29   30 am   BACKBONE|DICT|INTERRES
    61   29   99 1    
    62   30   31 2    
    63   30   32 1    
    64   32   33 1    
    65   32   34 1    
    66   32  100 1    
    67   33  101 1    
    68   33  102 1    
    69   33  103 1    
    70   34   35 am   BACKBONE|DICT|INTERRES
    71   34  104 1    
    72   35   36 2    
    73   37   38 2    
    74   37   39 am   BACKBONE|DICT|INTERRES
    75   39   40 1    
    76   39  105 1    
    77   40   41 1    
    78   40   42 1    
    79   40  106 1    
    80   41  107 1    
    81   41  108 1    
    82   41  109 1    
    83   42   43 2    
    84   42   44 am   BACKBONE|DICT|INTERRES
    85   44   45 1    
    86   44  110 1    
    87   45   46 1    
    88   45   47 1    
    89   45  111 1    
    90   46  112 1    
    91   46  113 1    
    92   46  114 1    
    93   47   48 2    
    94   47   49 am   BACKBONE|DICT|INTERRES
    95   49   50 1    
    96   49  115 1    
    97   50   51 1    
    98   50   52 1    
    99   50  116 1    
   100   51  117 1    
   101   51  118 1    
   102   51  119 1    
   103   52   53 2    
   104   52   54 am   BACKBONE|DICT|INTERRES
   105   54   55 1    
   106   54  120 1    
   107   55   56 1    
   108   55   57 1    
   109   55  121 1    
   110   56  122 1    
   111   56  123 1    
   112   56  124 1    
   113   57   58 2    
   114   57   59 am   BACKBONE|DICT|INTERRES
   115   59   60 1    
   116   59  125 1    
   117   60   61 1    
   118   60   62 1    
   119   60  126 1    
   120   61  127 1    
   121   61  128 1    
   122   61  129 1    
   123   62   63 2    
   124   62   64 am   BACKBONE|DICT|INTERRES
   125   64   65 1    
   126   64  130 1    
   127   65   66 1    
   128   65   69 1    
   129   65  131 1    
   130   66   67 am   BACKBONE|DICT|INTERRES
   131   66   68 2    
   132   67  132 1    
   133   67  133 1    
   134   69   70 1    
   135   69  134 1    
   136   69  135 1    
   137   70   71 1    
   138   71  136 1    
   139   71  137 1    
@<TRIPOS>SUBSTRUCTURE
     1 UNK         1 GROUP             0       ****    0 ROOT    
