@<TRIPOS>MOLECULE
3R137
137   139    1
SMALL
USER_CHARGES


@<TRIPOS>ATOM
      1 CA         26.4063    1.2421   -0.0611 C.3       0 UNK        -0.2020 
      2 C          27.0450    0.0584    0.6618 C.2       0 UNK         0.4855 
      3 O          26.9336   -0.0348    1.8821 O.2       0 UNK        -0.5197 
      4 N          27.7276   -0.8630   -0.0324 N.am      1 UNK        -0.4892 
      5 CA         27.9088   -0.9271   -1.4892 C.3       1 UNK         0.0835 
      6 C6         29.2164   -1.6661   -1.8705 C.3       12 UNK        -0.0855 
      7 S7         29.3476   -3.3376   -1.1431 S.3       12 UNK        -0.2931 
      8 C8         31.0262   -3.8194   -1.6666 C.3       12 UNK         0.0378 
      9 C9         31.1786   -3.9945   -3.1757 C.ar      12 UNK        -0.0802 
     10 C10        32.3492   -3.5589   -3.8049 C.ar      12 UNK        -0.0944 
     11 C11        32.5377   -3.7564   -5.1761 C.ar      12 UNK        -0.0787 
     12 C12        31.5375   -4.3826   -5.9249 C.ar      12 UNK        -0.0862 
     13 C13        30.3585   -4.8161   -5.3119 C.ar      12 UNK        -0.0733 
     14 C14        30.1892   -4.6288   -3.9371 C.ar      12 UNK        -0.0832 
     15 C15        29.2840   -5.5161   -6.1309 C.3       12 UNK         0.0240 
     16 S16        28.4529   -4.3832   -7.2862 S.3       12 UNK        -0.2522 
     17 C17        27.4395   -3.3670   -6.1593 C.3       12 UNK        -0.0967 
     18 CA         27.0763   -2.0038   -6.7974 C.3       5 UNK         0.0660 
     19 N          25.7906   -1.4796   -6.3171 N.am      5 UNK        -0.4015 
     20 C          25.1712   -0.4028   -6.8248 C.2       4 UNK         0.4946 
     21 O          25.6677    0.3291   -7.6809 O.2       4 UNK        -0.5353 
     22 CA         23.7647   -0.0879   -6.3112 C.3       4 UNK         0.0277 
     23 CB         22.7426   -1.0440   -6.9607 C.3       4 UNK        -0.1981 
     24 N          23.6880   -0.1369   -4.8491 N.am      4 UNK        -0.4209 
     25 C          22.6574    0.3344   -4.1300 C.2       3 UNK         0.4942 
     26 O          21.6966    0.9215   -4.6315 O.2       3 UNK        -0.5208 
     27 CA         22.6951    0.1362   -2.5976 C.3       3 UNK         0.0250 
     28 CB         21.2863   -0.0583   -1.9968 C.3       3 UNK        -0.1990 
     29 N          23.5966   -0.9317   -2.1461 N.am      3 UNK        -0.4232 
     30 C          23.5666   -2.2342   -2.4689 C.2       2 UNK         0.4993 
     31 O          22.6967   -2.7472   -3.1735 O.2       2 UNK        -0.5286 
     32 CA         24.7228   -3.1053   -1.9350 C.3       2 UNK         0.0209 
     33 CB         25.1397   -4.1945   -2.9452 C.3       2 UNK        -0.1931 
     34 N          25.9058   -2.3501   -1.4906 N.am      2 UNK        -0.4546 
     35 C          26.6922   -1.5369   -2.2157 C.2       1 UNK         0.5154 
     36 O          26.4738   -1.2282   -3.3904 O.2       1 UNK        -0.5181 
     37 C          28.2311   -0.9862   -6.7006 C.2       5 UNK         0.5014 
     38 O          29.0292   -0.8942   -7.6331 O.2       5 UNK        -0.5248 
     39 N          28.2550   -0.1800   -5.6285 N.am      6 UNK        -0.4434 
     40 CA         29.2071    0.9257   -5.4633 C.3       6 UNK         0.0363 
     41 CB         29.0712    1.5466   -4.0658 C.3       6 UNK        -0.1936 
     42 C          29.1221    2.0156   -6.5483 C.2       6 UNK         0.5081 
     43 O          30.1354    2.6622   -6.8124 O.2       6 UNK        -0.5248 
     44 N          27.9471    2.1932   -7.1653 N.am      7 UNK        -0.4718 
     45 CA         27.7567    3.0842   -8.3084 C.3       7 UNK         0.0273 
     46 CB         26.3430    3.6885   -8.2690 C.3       7 UNK        -0.1935 
     47 C          28.0002    2.3366   -9.6268 C.2       7 UNK         0.5018 
     48 O          28.7289    2.8439  -10.4786 O.2       7 UNK        -0.5186 
     49 N          27.4001    1.1450   -9.7673 N.am      8 UNK        -0.4240 
     50 CA         27.4253    0.3281  -10.9846 C.3       8 UNK         0.0235 
     51 CB         26.4366   -0.8402  -10.8448 C.3       8 UNK        -0.2000 
     52 C          28.8238   -0.1849  -11.3656 C.2       8 UNK         0.4941 
     53 O          29.1891   -0.1111  -12.5394 O.2       8 UNK        -0.5273 
     54 N          29.5840   -0.6761  -10.3777 N.am      9 UNK        -0.4262 
     55 CA         30.9684   -1.1300  -10.5454 C.3       9 UNK         0.0264 
     56 CB         31.2077   -2.3534   -9.6425 C.3       9 UNK        -0.1955 
     57 C          31.9896   -0.0155  -10.2478 C.2       9 UNK         0.5031 
     58 O          33.1874   -0.2459  -10.4180 O.2       9 UNK        -0.5390 
     59 N          31.5083    1.1589   -9.8081 N.am      10 UNK        -0.4204 
     60 CA         32.2652    2.3562   -9.4181 C.3       10 UNK         0.0237 
     61 CB         33.0045    2.9611  -10.6310 C.3       10 UNK        -0.1985 
     62 C          33.1871    2.1423   -8.1983 C.2       10 UNK         0.4970 
     63 O          34.1909    2.8445   -8.0619 O.2       10 UNK        -0.4914 
     64 N          32.8297    1.1875   -7.3301 N.am      11 UNK        -0.4285 
     65 CA         33.5542    0.8581   -6.0932 C.3       11 UNK         0.1007 
     66 C          33.3686    1.8909   -4.9443 C.2       11 UNK         0.5703 
     67 N          32.4011    2.7982   -5.0077 N.am      11 UNK        -0.7361 
     68 O          34.1291    1.8742   -3.9795 O.2       11 UNK        -0.4986 
     69 C69        33.2356   -0.5793   -5.6061 C.3       12 UNK        -0.0947 
     70 S70        33.6121   -1.8383   -6.8690 S.3       12 UNK        -0.2240 
     71 C71        33.8342   -3.3230   -5.8449 C.3       12 UNK         0.0194 
     72 H72        27.1742    1.9160   -0.4403 H         1 UNK         0.0906 
     73 H73        25.7794    0.9232   -0.8912 H         1 UNK         0.0906 
     74 H74        25.7774    1.8108    0.6238 H         1 UNK         0.0906 
     75 H75        28.1666   -1.6208    0.4740 H         1 UNK         0.3140 
     76 H76        27.9954    0.0933   -1.8586 H         1 UNK         0.1085 
     77 H77        29.3209   -1.7378   -2.9557 H         1 UNK         0.0836 
     78 H78        30.0728   -1.0812   -1.5306 H         1 UNK         0.0836 
     79 H79        31.2833   -4.7627   -1.1833 H         1 UNK         0.0731 
     80 H80        31.7332   -3.0781   -1.2907 H         1 UNK         0.0731 
     81 H81        33.1258   -3.0809   -3.2234 H         1 UNK         0.1312 
     82 H82        31.6769   -4.5330   -6.9870 H         1 UNK         0.1406 
     83 H83        29.2874   -4.9829   -3.4566 H         1 UNK         0.1631 
     84 H84        28.5385   -5.9846   -5.4863 H         1 UNK         0.0717 
     85 H85        29.7436   -6.3236   -6.7027 H         1 UNK         0.0717 
     86 H86        26.5366   -3.9451   -5.9609 H         1 UNK         0.0934 
     87 H87        27.9358   -3.2370   -5.1955 H         1 UNK         0.0934 
     88 H88        26.9170   -2.1774   -7.8626 H         1 UNK         0.0739 
     89 H89        25.3275   -2.0211   -5.6034 H         1 UNK         0.3093 
     90 H90        23.5328    0.9316   -6.6278 H         1 UNK         0.0818 
     91 H91        21.7173   -0.7342   -6.7595 H         1 UNK         0.0819 
     92 H92        22.8593   -1.0659   -8.0453 H         1 UNK         0.0819 
     93 H93        22.8574   -2.0659   -6.5972 H         1 UNK         0.0819 
     94 H94        24.4781   -0.5365   -4.3575 H         1 UNK         0.3041 
     95 H95        23.0995    1.0643   -2.1909 H         1 UNK         0.0784 
     96 H96        20.6485    0.8028   -2.2001 H         1 UNK         0.0793 
     97 H97        20.7886   -0.9357   -2.4110 H         1 UNK         0.0793 
     98 H98        21.3291   -0.1768   -0.9141 H         1 UNK         0.0793 
     99 H99        24.3582   -0.6346   -1.5553 H         1 UNK         0.3024 
    100 H100       24.3284   -3.6086   -1.0505 H         1 UNK         0.1171 
    101 H101       24.3085   -4.8640   -3.1701 H         1 UNK         0.0786 
    102 H102       25.4711   -3.7603   -3.8866 H         1 UNK         0.0786 
    103 H103       25.9513   -4.8088   -2.5550 H         1 UNK         0.0786 
    104 H104       26.1802   -2.5034   -0.5293 H         1 UNK         0.2977 
    105 H105       27.5657   -0.3294   -4.8990 H         1 UNK         0.3127 
    106 H106       30.2091    0.5021   -5.5404 H         1 UNK         0.0770 
    107 H107       28.0318    1.7505   -3.8070 H         1 UNK         0.0814 
    108 H108       29.6142    2.4904   -3.9953 H         1 UNK         0.0814 
    109 H109       29.5018    0.8907   -3.3123 H         1 UNK         0.0814 
    110 H110       27.1741    1.5790   -6.9381 H         1 UNK         0.2983 
    111 H111       28.4705    3.9098   -8.2557 H         1 UNK         0.0947 
    112 H112       26.1888    4.3700   -9.1066 H         1 UNK         0.0806 
    113 H113       26.1840    4.2596   -7.3542 H         1 UNK         0.0806 
    114 H114       25.5667    2.9249   -8.3244 H         1 UNK         0.0806 
    115 H115       26.8074    0.8129   -9.0079 H         1 UNK         0.3000 
    116 H116       27.0783    0.9629  -11.8028 H         1 UNK         0.0850 
    117 H117       26.3791   -1.4141  -11.7706 H         1 UNK         0.0810 
    118 H118       25.4305   -0.4860  -10.6190 H         1 UNK         0.0810 
    119 H119       26.7346   -1.5284  -10.0549 H         1 UNK         0.0810 
    120 H120       29.2178   -0.7130   -9.4258 H         1 UNK         0.3040 
    121 H121       31.1294   -1.4450  -11.5785 H         1 UNK         0.0766 
    122 H122       31.1184   -2.1026   -8.5855 H         1 UNK         0.0812 
    123 H123       32.2081   -2.7612   -9.7926 H         1 UNK         0.0812 
    124 H124       30.4962   -3.1512   -9.8555 H         1 UNK         0.0812 
    125 H125       30.5035    1.2443   -9.7384 H         1 UNK         0.3205 
    126 H126       31.5195    3.0861   -9.1001 H         1 UNK         0.0754 
    127 H127       33.4364    3.9314  -10.3831 H         1 UNK         0.0769 
    128 H128       32.3263    3.1160  -11.4702 H         1 UNK         0.0769 
    129 H129       33.8190    2.3204  -10.9702 H         1 UNK         0.0769 
    130 H130       31.9901    0.6595   -7.5111 H         1 UNK         0.2981 
    131 H131       34.6189    0.8816   -6.3335 H         1 UNK         0.0541 
    132 H132       31.7434    2.8075   -5.7815 H         1 UNK         0.3459 
    133 H133       32.3083    3.4681   -4.2618 H         1 UNK         0.3459 
    134 H134       32.1862   -0.6767   -5.3261 H         1 UNK         0.0612 
    135 H135       33.8154   -0.8107   -4.7106 H         1 UNK         0.0612 
    136 H136       34.1999   -4.1325   -6.4782 H         1 UNK         0.0624 
    137 H137       34.6145   -3.1392   -5.1047 H         1 UNK         0.0624 
@<TRIPOS>BOND
     1    1    2 1    
     2    1   72 1    
     3    1   73 1    
     4    1   74 1    
     5    2    3 2    
     6    2    4 am   BACKBONE|DICT|INTERRES
     7    4    5 1    
     8    4   75 1    
     9    5    6 1    
    10    5   35 1    
    11    5   76 1    
    12    6    7 1    
    13    6   77 1    
    14    6   78 1    
    15    7    8 1    
    16    8    9 1    
    17    8   79 1    
    18    8   80 1    
    19    9   10 ar   
    20    9   14 ar   
    21   10   11 ar   
    22   10   81 1    
    23   11   12 ar   
    24   11   71 1    
    25   12   13 ar   
    26   12   82 1    
    27   13   14 ar   
    28   13   15 1    
    29   14   83 1    
    30   15   16 1    
    31   15   84 1    
    32   15   85 1    
    33   16   17 1    
    34   17   18 1    
    35   17   86 1    
    36   17   87 1    
    37   18   19 1    
    38   18   37 1    
    39   18   88 1    
    40   19   20 am   BACKBONE|DICT|INTERRES
    41   19   89 1    
    42   20   21 2    
    43   20   22 1    
    44   22   23 1    
    45   22   24 1    
    46   22   90 1    
    47   23   91 1    
    48   23   92 1    
    49   23   93 1    
    50   24   25 am   BACKBONE|DICT|INTERRES
    51   24   94 1    
    52   25   26 2    
    53   25   27 1    
    54   27   28 1    
    55   27   29 1    
    56   27   95 1    
    57   28   96 1    
    58   28   97 1    
    59   28   98 1    
    60   29   30 am   BACKBONE|DICT|INTERRES
    61   29   99 1    
    62   30   31 2    
    63   30   32 1    
    64   32   33 1    
    65   32   34 1    
    66   32  100 1    
    67   33  101 1    
    68   33  102 1    
    69   33  103 1    
    70   34   35 am   BACKBONE|DICT|INTERRES
    71   34  104 1    
    72   35   36 2    
    73   37   38 2    
    74   37   39 am   BACKBONE|DICT|INTERRES
    75   39   40 1    
    76   39  105 1    
    77   40   41 1    
    78   40   42 1    
    79   40  106 1    
    80   41  107 1    
    81   41  108 1    
    82   41  109 1    
    83   42   43 2    
    84   42   44 am   BACKBONE|DICT|INTERRES
    85   44   45 1    
    86   44  110 1    
    87   45   46 1    
    88   45   47 1    
    89   45  111 1    
    90   46  112 1    
    91   46  113 1    
    92   46  114 1    
    93   47   48 2    
    94   47   49 am   BACKBONE|DICT|INTERRES
    95   49   50 1    
    96   49  115 1    
    97   50   51 1    
    98   50   52 1    
    99   50  116 1    
   100   51  117 1    
   101   51  118 1    
   102   51  119 1    
   103   52   53 2    
   104   52   54 am   BACKBONE|DICT|INTERRES
   105   54   55 1    
   106   54  120 1    
   107   55   56 1    
   108   55   57 1    
   109   55  121 1    
   110   56  122 1    
   111   56  123 1    
   112   56  124 1    
   113   57   58 2    
   114   57   59 am   BACKBONE|DICT|INTERRES
   115   59   60 1    
   116   59  125 1    
   117   60   61 1    
   118   60   62 1    
   119   60  126 1    
   120   61  127 1    
   121   61  128 1    
   122   61  129 1    
   123   62   63 2    
   124   62   64 am   BACKBONE|DICT|INTERRES
   125   64   65 1    
   126   64  130 1    
   127   65   66 1    
   128   65   69 1    
   129   65  131 1    
   130   66   67 am   BACKBONE|DICT|INTERRES
   131   66   68 2    
   132   67  132 1    
   133   67  133 1    
   134   69   70 1    
   135   69  134 1    
   136   69  135 1    
   137   70   71 1    
   138   71  136 1    
   139   71  137 1    
@<TRIPOS>SUBSTRUCTURE
     1 UNK         1 GROUP             0       ****    0 ROOT    
