@<TRIPOS>MOLECULE
3R137
137   139    1
SMALL
USER_CHARGES


@<TRIPOS>ATOM
      1 CA         30.5130    1.0427   -2.3394 C.3       0 UNK        -0.2020 
      2 C          29.8259   -0.3021   -2.5099 C.2       0 UNK         0.4855 
      3 O          29.5407   -0.7000   -3.6370 O.2       0 UNK        -0.5197 
      4 N          29.5686   -1.0003   -1.3978 N.am      1 UNK        -0.4892 
      5 CA         28.8346   -2.2663   -1.3572 C.3       1 UNK         0.0835 
      6 C6         29.3274   -3.1420   -0.1760 C.3       12 UNK        -0.0855 
      7 S7         28.9090   -4.9085   -0.3653 S.3       12 UNK        -0.2931 
      8 C8         30.4408   -5.5796   -1.0955 C.3       12 UNK         0.0378 
      9 C9         30.6594   -5.0490   -2.5044 C.ar      12 UNK        -0.0802 
     10 C10        31.6752   -4.1227   -2.7695 C.ar      12 UNK        -0.0944 
     11 C11        31.8281   -3.5856   -4.0524 C.ar      12 UNK        -0.0787 
     12 C12        30.9586   -3.9905   -5.0689 C.ar      12 UNK        -0.0862 
     13 C13        29.9358   -4.9067   -4.8140 C.ar      12 UNK        -0.0733 
     14 C14        29.8038   -5.4500   -3.5348 C.ar      12 UNK        -0.0832 
     15 C15        28.9348   -5.2550   -5.9059 C.3       12 UNK         0.0240 
     16 S16        27.3288   -4.4378   -5.6240 S.3       12 UNK        -0.2522 
     17 C17        27.7976   -2.6734   -5.5731 C.3       12 UNK        -0.0967 
     18 CA         27.1282   -1.8266   -6.6733 C.3       5 UNK         0.0660 
     19 N          25.6671   -1.8694   -6.5997 N.am      5 UNK        -0.4015 
     20 C          24.8389   -1.4359   -7.5579 C.2       4 UNK         0.4946 
     21 O          25.2187   -0.9847   -8.6374 O.2       4 UNK        -0.5353 
     22 CA         23.3335   -1.4837   -7.2457 C.3       4 UNK         0.0277 
     23 CB         22.7591   -2.8725   -7.5675 C.3       4 UNK        -0.1981 
     24 N          23.0345   -1.1370   -5.8532 N.am      4 UNK        -0.4209 
     25 C          23.2122    0.0835   -5.3266 C.2       3 UNK         0.4942 
     26 O          23.5862    1.0603   -5.9763 O.2       3 UNK        -0.5208 
     27 CA         22.9850    0.2239   -3.8087 C.3       3 UNK         0.0250 
     28 CB         21.4976    0.4642   -3.5051 C.3       3 UNK        -0.1990 
     29 N          23.4737   -0.9173   -3.0194 N.am      3 UNK        -0.4232 
     30 C          24.7421   -1.3518   -3.0207 C.2       2 UNK         0.4993 
     31 O          25.6201   -0.8538   -3.7255 O.2       2 UNK        -0.5286 
     32 CA         25.0685   -2.5748   -2.1428 C.3       2 UNK         0.0209 
     33 CB         24.4676   -3.8516   -2.7558 C.3       2 UNK        -0.1931 
     34 N          26.5147   -2.7706   -1.9905 N.am      2 UNK        -0.4546 
     35 C          27.3221   -1.9745   -1.2771 C.2       1 UNK         0.5154 
     36 O          26.9157   -1.0547   -0.5602 O.2       1 UNK        -0.5181 
     37 C          27.6485   -0.3783   -6.6157 C.2       5 UNK         0.5014 
     38 O          28.5479   -0.0276   -7.3792 O.2       5 UNK        -0.5248 
     39 N          27.0538    0.4410   -5.7365 N.am      6 UNK        -0.4434 
     40 CA         27.3319    1.8700   -5.6015 C.3       6 UNK         0.0363 
     41 CB         26.5778    2.4341   -4.3881 C.3       6 UNK        -0.1936 
     42 C          27.0009    2.6583   -6.8800 C.2       6 UNK         0.5081 
     43 O          27.7632    3.5502   -7.2523 O.2       6 UNK        -0.5248 
     44 N          25.8981    2.2907   -7.5502 N.am      7 UNK        -0.4718 
     45 CA         25.5362    2.7908   -8.8783 C.3       7 UNK         0.0273 
     46 CB         24.0964    2.3760   -9.2196 C.3       7 UNK        -0.1935 
     47 C          26.5232    2.3228   -9.9627 C.2       7 UNK         0.5018 
     48 O          26.9603    3.1393  -10.7748 O.2       7 UNK        -0.5186 
     49 N          26.9046    1.0378   -9.9315 N.am      8 UNK        -0.4240 
     50 CA         27.9027    0.4158  -10.8102 C.3       8 UNK         0.0235 
     51 CB         27.6544   -1.1030  -10.8550 C.3       8 UNK        -0.2000 
     52 C          29.3565    0.7651  -10.4185 C.2       8 UNK         0.4941 
     53 O          30.1925   -0.1282  -10.2705 O.2       8 UNK        -0.5273 
     54 N          29.6326    2.0671  -10.2734 N.am      9 UNK        -0.4262 
     55 CA         30.9317    2.7061  -10.0316 C.3       9 UNK         0.0264 
     56 CB         31.9246    2.3912  -11.1716 C.3       9 UNK        -0.1955 
     57 C          31.5667    2.4743   -8.6454 C.2       9 UNK         0.5031 
     58 O          32.6655    2.9876   -8.4267 O.2       9 UNK        -0.5390 
     59 N          30.9019    1.7568   -7.7239 N.am      10 UNK        -0.4204 
     60 CA         31.2844    1.5911   -6.3097 C.3       10 UNK         0.0237 
     61 CB         31.1491    2.9457   -5.5750 C.3       10 UNK        -0.1985 
     62 C          32.6764    0.9578   -6.0872 C.2       10 UNK         0.4970 
     63 O          33.3240    1.2630   -5.0842 O.2       10 UNK        -0.4914 
     64 N          33.1224    0.1154   -7.0306 N.am      11 UNK        -0.4285 
     65 CA         34.4904   -0.4319   -7.1278 C.3       11 UNK         0.1007 
     66 C          35.5913    0.6321   -7.4402 C.2       11 UNK         0.5703 
     67 N          35.2578    1.8453   -7.8655 N.am      11 UNK        -0.7361 
     68 O          36.7817    0.3447   -7.3336 O.2       11 UNK        -0.4986 
     69 C69        34.8850   -1.3635   -5.9402 C.3       12 UNK        -0.0947 
     70 S70        33.8488   -2.8572   -5.8291 S.3       12 UNK        -0.2240 
     71 C71        32.8788   -2.5150   -4.3250 C.3       12 UNK         0.0194 
     72 H72        29.8902    1.8326   -2.7583 H         1 UNK         0.0906 
     73 H73        31.4691    1.0404   -2.8622 H         1 UNK         0.0906 
     74 H74        30.7001    1.2781   -1.2919 H         1 UNK         0.0906 
     75 H75        29.7792   -0.5932   -0.4977 H         1 UNK         0.3140 
     76 H76        29.0306   -2.7975   -2.2912 H         1 UNK         0.1085 
     77 H77        28.9254   -2.7835    0.7739 H         1 UNK         0.0836 
     78 H78        30.4116   -3.0630   -0.0800 H         1 UNK         0.0836 
     79 H79        31.2891   -5.3461   -0.4501 H         1 UNK         0.0731 
     80 H80        30.3712   -6.6678   -1.1281 H         1 UNK         0.0731 
     81 H81        32.3258   -3.7959   -1.9699 H         1 UNK         0.1312 
     82 H82        31.0536   -3.5559   -6.0546 H         1 UNK         0.1406 
     83 H83        29.0020   -6.1462   -3.3280 H         1 UNK         0.1631 
     84 H84        28.7857   -6.3352   -5.9350 H         1 UNK         0.0717 
     85 H85        29.3146   -4.9694   -6.8882 H         1 UNK         0.0717 
     86 H86        27.5574   -2.2889   -4.5826 H         1 UNK         0.0934 
     87 H87        28.8764   -2.5684   -5.6641 H         1 UNK         0.0934 
     88 H88        27.4226   -2.2413   -7.6391 H         1 UNK         0.0739 
     89 H89        25.2795   -2.1797   -5.7219 H         1 UNK         0.3093 
     90 H90        22.8400   -0.7520   -7.8894 H         1 UNK         0.0818 
     91 H91        22.9543   -3.1421   -8.6065 H         1 UNK         0.0819 
     92 H92        23.1989   -3.6502   -6.9415 H         1 UNK         0.0819 
     93 H93        21.6784   -2.8976   -7.4263 H         1 UNK         0.0819 
     94 H94        22.7113   -1.8794   -5.2504 H         1 UNK         0.3041 
     95 H95        23.5428    1.1036   -3.4811 H         1 UNK         0.0784 
     96 H96        21.1182    1.3188   -4.0674 H         1 UNK         0.0793 
     97 H97        20.8845   -0.3982   -3.7700 H         1 UNK         0.0793 
     98 H98        21.3376    0.6790   -2.4483 H         1 UNK         0.0793 
     99 H99        22.7987   -1.3788   -2.4260 H         1 UNK         0.3024 
    100 H100       24.6357   -2.4110   -1.1532 H         1 UNK         0.1171 
    101 H101       23.3819   -3.7833   -2.8338 H         1 UNK         0.0786 
    102 H102       24.8554   -4.0415   -3.7574 H         1 UNK         0.0786 
    103 H103       24.6880   -4.7258   -2.1425 H         1 UNK         0.0786 
    104 H104       26.9280   -3.5045   -2.5472 H         1 UNK         0.2977 
    105 H105       26.3910    0.0365   -5.0751 H         1 UNK         0.3127 
    106 H106       28.3998    1.9701   -5.4098 H         1 UNK         0.0770 
    107 H107       25.4977    2.3641   -4.5162 H         1 UNK         0.0814 
    108 H108       26.8215    3.4858   -4.2336 H         1 UNK         0.0814 
    109 H109       26.8421    1.8997   -3.4751 H         1 UNK         0.0814 
    110 H110       25.2874    1.5945   -7.1358 H         1 UNK         0.2983 
    111 H111       25.5747    3.8819   -8.8461 H         1 UNK         0.0947 
    112 H112       23.9835    1.2929   -9.2640 H         1 UNK         0.0806 
    113 H113       23.7959    2.7750  -10.1893 H         1 UNK         0.0806 
    114 H114       23.3901    2.7534   -8.4797 H         1 UNK         0.0806 
    115 H115       26.4728    0.4243   -9.2460 H         1 UNK         0.3000 
    116 H116       27.7510    0.7998  -11.8211 H         1 UNK         0.0850 
    117 H117       28.3242   -1.5902  -11.5646 H         1 UNK         0.0810 
    118 H118       26.6339   -1.3308  -11.1632 H         1 UNK         0.0810 
    119 H119       27.8200   -1.5624   -9.8807 H         1 UNK         0.0810 
    120 H120       28.8505    2.7048  -10.3964 H         1 UNK         0.3040 
    121 H121       30.7280    3.7770  -10.0726 H         1 UNK         0.0766 
    122 H122       32.2333    1.3455  -11.1643 H         1 UNK         0.0812 
    123 H123       32.8295    2.9936  -11.0822 H         1 UNK         0.0812 
    124 H124       31.4911    2.6074  -12.1479 H         1 UNK         0.0812 
    125 H125       30.0307    1.3041   -7.9881 H         1 UNK         0.3205 
    126 H126       30.5665    0.8970   -5.8712 H         1 UNK         0.0754 
    127 H127       31.2559    2.8281   -4.4978 H         1 UNK         0.0769 
    128 H128       30.1805    3.4096   -5.7568 H         1 UNK         0.0769 
    129 H129       31.9152    3.6530   -5.8946 H         1 UNK         0.0769 
    130 H130       32.5219   -0.0693   -7.8211 H         1 UNK         0.2981 
    131 H131       34.4753   -1.0541   -8.0231 H         1 UNK         0.0541 
    132 H132       34.2869    2.1245   -7.9815 H         1 UNK         0.3459 
    133 H133       35.9896    2.5056   -8.0718 H         1 UNK         0.3459 
    134 H134       34.8721   -0.8246   -4.9923 H         1 UNK         0.0612 
    135 H135       35.9088   -1.7213   -6.0595 H         1 UNK         0.0612 
    136 H136       33.5624   -2.4208   -3.4800 H         1 UNK         0.0624 
    137 H137       32.3738   -1.5542   -4.4312 H         1 UNK         0.0624 
@<TRIPOS>BOND
     1    1    2 1    
     2    1   72 1    
     3    1   73 1    
     4    1   74 1    
     5    2    3 2    
     6    2    4 am   BACKBONE|DICT|INTERRES
     7    4    5 1    
     8    4   75 1    
     9    5    6 1    
    10    5   35 1    
    11    5   76 1    
    12    6    7 1    
    13    6   77 1    
    14    6   78 1    
    15    7    8 1    
    16    8    9 1    
    17    8   79 1    
    18    8   80 1    
    19    9   10 ar   
    20    9   14 ar   
    21   10   11 ar   
    22   10   81 1    
    23   11   12 ar   
    24   11   71 1    
    25   12   13 ar   
    26   12   82 1    
    27   13   14 ar   
    28   13   15 1    
    29   14   83 1    
    30   15   16 1    
    31   15   84 1    
    32   15   85 1    
    33   16   17 1    
    34   17   18 1    
    35   17   86 1    
    36   17   87 1    
    37   18   19 1    
    38   18   37 1    
    39   18   88 1    
    40   19   20 am   BACKBONE|DICT|INTERRES
    41   19   89 1    
    42   20   21 2    
    43   20   22 1    
    44   22   23 1    
    45   22   24 1    
    46   22   90 1    
    47   23   91 1    
    48   23   92 1    
    49   23   93 1    
    50   24   25 am   BACKBONE|DICT|INTERRES
    51   24   94 1    
    52   25   26 2    
    53   25   27 1    
    54   27   28 1    
    55   27   29 1    
    56   27   95 1    
    57   28   96 1    
    58   28   97 1    
    59   28   98 1    
    60   29   30 am   BACKBONE|DICT|INTERRES
    61   29   99 1    
    62   30   31 2    
    63   30   32 1    
    64   32   33 1    
    65   32   34 1    
    66   32  100 1    
    67   33  101 1    
    68   33  102 1    
    69   33  103 1    
    70   34   35 am   BACKBONE|DICT|INTERRES
    71   34  104 1    
    72   35   36 2    
    73   37   38 2    
    74   37   39 am   BACKBONE|DICT|INTERRES
    75   39   40 1    
    76   39  105 1    
    77   40   41 1    
    78   40   42 1    
    79   40  106 1    
    80   41  107 1    
    81   41  108 1    
    82   41  109 1    
    83   42   43 2    
    84   42   44 am   BACKBONE|DICT|INTERRES
    85   44   45 1    
    86   44  110 1    
    87   45   46 1    
    88   45   47 1    
    89   45  111 1    
    90   46  112 1    
    91   46  113 1    
    92   46  114 1    
    93   47   48 2    
    94   47   49 am   BACKBONE|DICT|INTERRES
    95   49   50 1    
    96   49  115 1    
    97   50   51 1    
    98   50   52 1    
    99   50  116 1    
   100   51  117 1    
   101   51  118 1    
   102   51  119 1    
   103   52   53 2    
   104   52   54 am   BACKBONE|DICT|INTERRES
   105   54   55 1    
   106   54  120 1    
   107   55   56 1    
   108   55   57 1    
   109   55  121 1    
   110   56  122 1    
   111   56  123 1    
   112   56  124 1    
   113   57   58 2    
   114   57   59 am   BACKBONE|DICT|INTERRES
   115   59   60 1    
   116   59  125 1    
   117   60   61 1    
   118   60   62 1    
   119   60  126 1    
   120   61  127 1    
   121   61  128 1    
   122   61  129 1    
   123   62   63 2    
   124   62   64 am   BACKBONE|DICT|INTERRES
   125   64   65 1    
   126   64  130 1    
   127   65   66 1    
   128   65   69 1    
   129   65  131 1    
   130   66   67 am   BACKBONE|DICT|INTERRES
   131   66   68 2    
   132   67  132 1    
   133   67  133 1    
   134   69   70 1    
   135   69  134 1    
   136   69  135 1    
   137   70   71 1    
   138   71  136 1    
   139   71  137 1    
@<TRIPOS>SUBSTRUCTURE
     1 UNK         1 GROUP             0       ****    0 ROOT    
