@<TRIPOS>MOLECULE
3R137
137   139    1
SMALL
USER_CHARGES


@<TRIPOS>ATOM
      1 CA         25.8386    2.1962    2.8162 C.3       0 UNK        -0.2020 
      2 C          26.1848    1.6663    1.4332 C.2       0 UNK         0.4855 
      3 O          25.8858    2.3187    0.4320 O.2       0 UNK        -0.5197 
      4 N          26.8001    0.4788    1.3605 N.am      1 UNK        -0.4892 
      5 CA         27.2136   -0.1982    0.1234 C.3       1 UNK         0.0835 
      6 C6         28.4423   -1.1162    0.3863 C.3       12 UNK        -0.0855 
      7 S7         29.6049   -1.1262   -1.0155 S.3       12 UNK        -0.2931 
      8 C8         29.4859   -2.8541   -1.5900 C.3       12 UNK         0.0378 
      9 C9         30.1660   -3.0976   -2.9376 C.ar      12 UNK        -0.0802 
     10 C10        31.3717   -2.4701   -3.2766 C.ar      12 UNK        -0.0944 
     11 C11        31.9807   -2.7133   -4.5108 C.ar      12 UNK        -0.0787 
     12 C12        31.3825   -3.5956   -5.4147 C.ar      12 UNK        -0.0862 
     13 C13        30.1947   -4.2508   -5.0803 C.ar      12 UNK        -0.0733 
     14 C14        29.5915   -3.9950   -3.8444 C.ar      12 UNK        -0.0832 
     15 C15        29.5920   -5.2821   -6.0222 C.3       12 UNK         0.0240 
     16 S16        28.0275   -4.7190   -6.7553 S.3       12 UNK        -0.2522 
     17 C17        28.5885   -3.7209   -8.1815 C.3       12 UNK        -0.0967 
     18 CA         27.8347   -2.3742   -8.3441 C.3       5 UNK         0.0660 
     19 N          26.3925   -2.5136   -8.1246 N.am      5 UNK        -0.4015 
     20 C          25.4656   -1.5901   -8.4069 C.2       4 UNK         0.4946 
     21 O          25.7091   -0.5234   -8.9677 O.2       4 UNK        -0.5353 
     22 CA         24.0342   -1.8845   -7.9242 C.3       4 UNK         0.0277 
     23 CB         23.2813   -2.7419   -8.9537 C.3       4 UNK        -0.1981 
     24 N          23.9875   -2.5331   -6.6066 N.am      4 UNK        -0.4209 
     25 C          24.4743   -1.9917   -5.4810 C.2       3 UNK         0.4942 
     26 O          25.0250   -0.8900   -5.4422 O.2       3 UNK        -0.5208 
     27 CA         24.4008   -2.8585   -4.2123 C.3       3 UNK         0.0250 
     28 CB         25.5946   -3.8245   -4.1586 C.3       3 UNK        -0.1990 
     29 N          24.3958   -2.0651   -2.9821 N.am      3 UNK        -0.4232 
     30 C          23.4241   -1.2327   -2.5954 C.2       2 UNK         0.4993 
     31 O          22.3936   -1.0436   -3.2442 O.2       2 UNK        -0.5286 
     32 CA         23.5914   -0.5010   -1.2493 C.3       2 UNK         0.0209 
     33 CB         22.8860   -1.2821   -0.1232 C.3       2 UNK        -0.1931 
     34 N          24.9602   -0.1383   -0.8417 N.am      2 UNK        -0.4546 
     35 C          26.0082   -0.9172   -0.5328 C.2       1 UNK         0.5154 
     36 O          26.0224   -2.1375   -0.7020 O.2       1 UNK        -0.5181 
     37 C          28.4643   -1.2513   -7.4952 C.2       5 UNK         0.5014 
     38 O          29.3600   -0.5665   -7.9899 O.2       5 UNK        -0.5248 
     39 N          27.9685   -1.0473   -6.2662 N.am      6 UNK        -0.4434 
     40 CA         28.3821    0.0488   -5.3896 C.3       6 UNK         0.0363 
     41 CB         27.9053   -0.2139   -3.9532 C.3       6 UNK        -0.1936 
     42 C          27.8501    1.3966   -5.8957 C.2       6 UNK         0.5081 
     43 O          28.6084    2.3635   -5.9505 O.2       6 UNK        -0.5248 
     44 N          26.5691    1.4254   -6.2925 N.am      7 UNK        -0.4718 
     45 CA         25.8919    2.5917   -6.8678 C.3       7 UNK         0.0273 
     46 CB         24.3942    2.2871   -7.0288 C.3       7 UNK        -0.1935 
     47 C          26.5068    3.0474   -8.2030 C.2       7 UNK         0.5018 
     48 O          26.6679    4.2493   -8.4167 O.2       7 UNK        -0.5186 
     49 N          26.8725    2.0819   -9.0575 N.am      8 UNK        -0.4240 
     50 CA         27.5965    2.3025  -10.3128 C.3       8 UNK         0.0235 
     51 CB         27.4526    1.0516  -11.1962 C.3       8 UNK        -0.2000 
     52 C          29.0876    2.6392  -10.1183 C.2       8 UNK         0.4941 
     53 O          29.7224    3.0777  -11.0784 O.2       8 UNK        -0.5273 
     54 N          29.6212    2.4080   -8.9083 N.am      9 UNK        -0.4262 
     55 CA         31.0283    2.5260   -8.5106 C.3       9 UNK         0.0264 
     56 CB         31.4909    3.9979   -8.5357 C.3       9 UNK        -0.1955 
     57 C          31.9481    1.5862   -9.3136 C.2       9 UNK         0.5031 
     58 O          33.0542    1.9744   -9.6981 O.2       9 UNK        -0.5390 
     59 N          31.4882    0.3477   -9.5356 N.am      10 UNK        -0.4204 
     60 CA         32.2024   -0.7184  -10.2418 C.3       10 UNK         0.0237 
     61 CB         31.1711   -1.7013  -10.8275 C.3       10 UNK        -0.1985 
     62 C          33.2212   -1.4021   -9.3101 C.2       10 UNK         0.4970 
     63 O          33.1524   -2.6139   -9.0949 O.2       10 UNK        -0.4914 
     64 N          34.1215   -0.5897   -8.7485 N.am      11 UNK        -0.4285 
     65 CA         35.0808   -0.9553   -7.6967 C.3       11 UNK         0.1007 
     66 C          36.5635   -0.7631   -8.1245 C.2       11 UNK         0.5703 
     67 N          36.8572   -0.3988   -9.3677 N.am      11 UNK        -0.7361 
     68 O          37.4701   -0.9678   -7.3206 O.2       11 UNK        -0.4986 
     69 C69        34.7619   -0.2175   -6.3649 C.3       12 UNK        -0.0947 
     70 S70        33.0579   -0.5086   -5.7764 S.3       12 UNK        -0.2240 
     71 C71        33.3051   -2.0539   -4.8559 C.3       12 UNK         0.0194 
     72 H72        24.7613    2.3327    2.9064 H         1 UNK         0.0906 
     73 H73        26.1624    1.5188    3.6062 H         1 UNK         0.0906 
     74 H74        26.3191    3.1606    2.9788 H         1 UNK         0.0906 
     75 H75        26.9823   -0.0305    2.2143 H         1 UNK         0.3140 
     76 H76        27.5234    0.5789   -0.5800 H         1 UNK         0.1085 
     77 H77        29.0159   -0.7388    1.2347 H         1 UNK         0.0836 
     78 H78        28.1569   -2.1311    0.6697 H         1 UNK         0.0836 
     79 H79        29.9327   -3.5113   -0.8431 H         1 UNK         0.0731 
     80 H80        28.4302   -3.1229   -1.6546 H         1 UNK         0.0731 
     81 H81        31.8432   -1.7919   -2.5790 H         1 UNK         0.1312 
     82 H82        31.8581   -3.7887   -6.3672 H         1 UNK         0.1406 
     83 H83        28.6756   -4.5096   -3.5867 H         1 UNK         0.1631 
     84 H84        29.4000   -6.1981   -5.4617 H         1 UNK         0.0717 
     85 H85        30.2926   -5.5553   -6.8130 H         1 UNK         0.0717 
     86 H86        29.6682   -3.5633   -8.1307 H         1 UNK         0.0934 
     87 H87        28.4298   -4.3264   -9.0752 H         1 UNK         0.0934 
     88 H88        27.9596   -2.0624   -9.3836 H         1 UNK         0.0739 
     89 H89        26.1064   -3.3633   -7.6600 H         1 UNK         0.3093 
     90 H90        23.5171   -0.9268   -7.8360 H         1 UNK         0.0818 
     91 H91        22.2366   -2.8745   -8.6719 H         1 UNK         0.0819 
     92 H92        23.2911   -2.2676   -9.9363 H         1 UNK         0.0819 
     93 H93        23.7282   -3.7306   -9.0649 H         1 UNK         0.0819 
     94 H94        23.5551   -3.4452   -6.5633 H         1 UNK         0.3041 
     95 H95        23.4754   -3.4376   -4.2388 H         1 UNK         0.0784 
     96 H96        25.5876   -4.5045   -5.0108 H         1 UNK         0.0793 
     97 H97        26.5453   -3.2898   -4.1693 H         1 UNK         0.0793 
     98 H98        25.5685   -4.4400   -3.2591 H         1 UNK         0.0793 
     99 H99        25.1776   -2.1853   -2.3437 H         1 UNK         0.3024 
    100 H100       23.0657    0.4488   -1.3636 H         1 UNK         0.1171 
    101 H101       21.8420   -1.4742   -0.3750 H         1 UNK         0.0786 
    102 H102       22.8948   -0.7234    0.8128 H         1 UNK         0.0786 
    103 H103       23.3584   -2.2482    0.0580 H         1 UNK         0.0786 
    104 H104       25.0929    0.8517   -0.6509 H         1 UNK         0.2977 
    105 H105       27.1865   -1.6046   -5.9550 H         1 UNK         0.3127 
    106 H106       29.4743    0.0847   -5.3850 H         1 UNK         0.0770 
    107 H107       28.1696   -1.2180   -3.6278 H         1 UNK         0.0814 
    108 H108       26.8275   -0.1031   -3.8403 H         1 UNK         0.0814 
    109 H109       28.3718    0.4899   -3.2636 H         1 UNK         0.0814 
    110 H110       26.0092    0.5854   -6.1628 H         1 UNK         0.2983 
    111 H111       25.9990    3.4155   -6.1589 H         1 UNK         0.0947 
    112 H112       23.8569    3.1596   -7.4029 H         1 UNK         0.0806 
    113 H113       23.9411    2.0087   -6.0770 H         1 UNK         0.0806 
    114 H114       24.2216    1.4717   -7.7315 H         1 UNK         0.0806 
    115 H115       26.6156    1.1198   -8.8437 H         1 UNK         0.3000 
    116 H116       27.1358    3.1455  -10.8319 H         1 UNK         0.0850 
    117 H117       27.9427    1.1923  -12.1605 H         1 UNK         0.0810 
    118 H118       26.4051    0.8246  -11.3954 H         1 UNK         0.0810 
    119 H119       27.9014    0.1755  -10.7262 H         1 UNK         0.0810 
    120 H120       29.0065    2.0512   -8.1874 H         1 UNK         0.3040 
    121 H121       31.0782    2.1825   -7.4760 H         1 UNK         0.0766 
    122 H122       32.4934    4.0984   -8.1180 H         1 UNK         0.0812 
    123 H123       30.8288    4.6302   -7.9443 H         1 UNK         0.0812 
    124 H124       31.5207    4.3969   -9.5500 H         1 UNK         0.0812 
    125 H125       30.6208    0.0741   -9.0714 H         1 UNK         0.3205 
    126 H126       32.7595   -0.2829  -11.0740 H         1 UNK         0.0754 
    127 H127       31.6619   -2.4870  -11.4032 H         1 UNK         0.0769 
    128 H128       30.4764   -1.1939  -11.4973 H         1 UNK         0.0769 
    129 H129       30.5871   -2.1852  -10.0445 H         1 UNK         0.0769 
    130 H130       34.0814    0.3947   -8.9926 H         1 UNK         0.2981 
    131 H131       34.9987   -2.0252   -7.5010 H         1 UNK         0.0541 
    132 H132       36.1265   -0.2505  -10.0452 H         1 UNK         0.3459 
    133 H133       37.8229   -0.2853   -9.6331 H         1 UNK         0.3459 
    134 H134       34.8912    0.8587   -6.4915 H         1 UNK         0.0612 
    135 H135       35.4560   -0.5158   -5.5770 H         1 UNK         0.0612 
    136 H136       33.9090   -2.7413   -5.4499 H         1 UNK         0.0624 
    137 H137       33.8761   -1.8458   -3.9497 H         1 UNK         0.0624 
@<TRIPOS>BOND
     1    1    2 1    
     2    1   72 1    
     3    1   73 1    
     4    1   74 1    
     5    2    3 2    
     6    2    4 am   BACKBONE|DICT|INTERRES
     7    4    5 1    
     8    4   75 1    
     9    5    6 1    
    10    5   35 1    
    11    5   76 1    
    12    6    7 1    
    13    6   77 1    
    14    6   78 1    
    15    7    8 1    
    16    8    9 1    
    17    8   79 1    
    18    8   80 1    
    19    9   10 ar   
    20    9   14 ar   
    21   10   11 ar   
    22   10   81 1    
    23   11   12 ar   
    24   11   71 1    
    25   12   13 ar   
    26   12   82 1    
    27   13   14 ar   
    28   13   15 1    
    29   14   83 1    
    30   15   16 1    
    31   15   84 1    
    32   15   85 1    
    33   16   17 1    
    34   17   18 1    
    35   17   86 1    
    36   17   87 1    
    37   18   19 1    
    38   18   37 1    
    39   18   88 1    
    40   19   20 am   BACKBONE|DICT|INTERRES
    41   19   89 1    
    42   20   21 2    
    43   20   22 1    
    44   22   23 1    
    45   22   24 1    
    46   22   90 1    
    47   23   91 1    
    48   23   92 1    
    49   23   93 1    
    50   24   25 am   BACKBONE|DICT|INTERRES
    51   24   94 1    
    52   25   26 2    
    53   25   27 1    
    54   27   28 1    
    55   27   29 1    
    56   27   95 1    
    57   28   96 1    
    58   28   97 1    
    59   28   98 1    
    60   29   30 am   BACKBONE|DICT|INTERRES
    61   29   99 1    
    62   30   31 2    
    63   30   32 1    
    64   32   33 1    
    65   32   34 1    
    66   32  100 1    
    67   33  101 1    
    68   33  102 1    
    69   33  103 1    
    70   34   35 am   BACKBONE|DICT|INTERRES
    71   34  104 1    
    72   35   36 2    
    73   37   38 2    
    74   37   39 am   BACKBONE|DICT|INTERRES
    75   39   40 1    
    76   39  105 1    
    77   40   41 1    
    78   40   42 1    
    79   40  106 1    
    80   41  107 1    
    81   41  108 1    
    82   41  109 1    
    83   42   43 2    
    84   42   44 am   BACKBONE|DICT|INTERRES
    85   44   45 1    
    86   44  110 1    
    87   45   46 1    
    88   45   47 1    
    89   45  111 1    
    90   46  112 1    
    91   46  113 1    
    92   46  114 1    
    93   47   48 2    
    94   47   49 am   BACKBONE|DICT|INTERRES
    95   49   50 1    
    96   49  115 1    
    97   50   51 1    
    98   50   52 1    
    99   50  116 1    
   100   51  117 1    
   101   51  118 1    
   102   51  119 1    
   103   52   53 2    
   104   52   54 am   BACKBONE|DICT|INTERRES
   105   54   55 1    
   106   54  120 1    
   107   55   56 1    
   108   55   57 1    
   109   55  121 1    
   110   56  122 1    
   111   56  123 1    
   112   56  124 1    
   113   57   58 2    
   114   57   59 am   BACKBONE|DICT|INTERRES
   115   59   60 1    
   116   59  125 1    
   117   60   61 1    
   118   60   62 1    
   119   60  126 1    
   120   61  127 1    
   121   61  128 1    
   122   61  129 1    
   123   62   63 2    
   124   62   64 am   BACKBONE|DICT|INTERRES
   125   64   65 1    
   126   64  130 1    
   127   65   66 1    
   128   65   69 1    
   129   65  131 1    
   130   66   67 am   BACKBONE|DICT|INTERRES
   131   66   68 2    
   132   67  132 1    
   133   67  133 1    
   134   69   70 1    
   135   69  134 1    
   136   69  135 1    
   137   70   71 1    
   138   71  136 1    
   139   71  137 1    
@<TRIPOS>SUBSTRUCTURE
     1 UNK         1 GROUP             0       ****    0 ROOT    
