@<TRIPOS>MOLECULE
3R137
137   139    1
SMALL
USER_CHARGES


@<TRIPOS>ATOM
      1 CA         29.2541    1.6160    0.0026 C.3       0 UNK        -0.2020 
      2 C          28.9775    0.7516   -1.2178 C.2       0 UNK         0.4855 
      3 O          29.4715    1.0522   -2.3035 O.2       0 UNK        -0.5197 
      4 N          28.1931   -0.3200   -1.0475 N.am      1 UNK        -0.4892 
      5 CA         27.8289   -1.2606   -2.1167 C.3       1 UNK         0.0835 
      6 C6         27.5039   -2.6738   -1.5680 C.3       12 UNK        -0.0855 
      7 S7         28.8854   -3.3720   -0.5967 S.3       12 UNK        -0.2931 
      8 C8         29.5473   -4.6602   -1.7090 C.3       12 UNK         0.0378 
      9 C9         30.0042   -4.1269   -3.0640 C.ar      12 UNK        -0.0802 
     10 C10        30.8532   -3.0172   -3.1516 C.ar      12 UNK        -0.0944 
     11 C11        31.2457   -2.5225   -4.3982 C.ar      12 UNK        -0.0787 
     12 C12        30.8198   -3.1683   -5.5610 C.ar      12 UNK        -0.0862 
     13 C13        29.9882   -4.2869   -5.4901 C.ar      12 UNK        -0.0733 
     14 C14        29.5812   -4.7601   -4.2382 C.ar      12 UNK        -0.0832 
     15 C15        29.5095   -4.9654   -6.7684 C.3       12 UNK         0.0240 
     16 S16        28.3007   -3.9460   -7.6779 S.3       12 UNK        -0.2522 
     17 C17        27.1150   -3.5706   -6.3467 C.3       12 UNK        -0.0967 
     18 CA         25.7205   -3.0987   -6.8363 C.3       5 UNK         0.0660 
     19 N          24.7136   -3.2739   -5.7989 N.am      5 UNK        -0.4015 
     20 C          24.1220   -4.4145   -5.4334 C.2       4 UNK         0.4946 
     21 O          24.3472   -5.5033   -5.9634 O.2       4 UNK        -0.5353 
     22 CA         23.1200   -4.3388   -4.2654 C.3       4 UNK         0.0277 
     23 CB         23.7709   -4.8622   -2.9741 C.3       4 UNK        -0.1981 
     24 N          22.6190   -2.9835   -4.0236 N.am      4 UNK        -0.4209 
     25 C          21.7513   -2.3247   -4.8004 C.2       3 UNK         0.4942 
     26 O          21.1922   -2.8272   -5.7755 O.2       3 UNK        -0.5208 
     27 CA         21.4836   -0.8475   -4.4573 C.3       3 UNK         0.0250 
     28 CB         20.4545   -0.7144   -3.3172 C.3       3 UNK        -0.1990 
     29 N          22.6979   -0.0557   -4.1951 N.am      3 UNK        -0.4232 
     30 C          23.5652   -0.1563   -3.1772 C.2       2 UNK         0.4993 
     31 O          23.4564   -0.9674   -2.2534 O.2       2 UNK        -0.5286 
     32 CA         24.7523    0.8203   -3.1993 C.3       2 UNK         0.0209 
     33 CB         24.3711    2.1554   -2.5398 C.3       2 UNK        -0.1931 
     34 N          25.9255    0.2695   -2.5156 N.am      2 UNK        -0.4546 
     35 C          26.6703   -0.7388   -2.9902 C.2       1 UNK         0.5154 
     36 O          26.4718   -1.2573   -4.0860 O.2       1 UNK        -0.5181 
     37 C          25.6795   -1.6166   -7.2655 C.2       5 UNK         0.5014 
     38 O          24.8300   -0.8557   -6.7883 O.2       5 UNK        -0.5248 
     39 N          26.5912   -1.2289   -8.1649 N.am      6 UNK        -0.4434 
     40 CA         26.7048    0.1266   -8.7138 C.3       6 UNK         0.0363 
     41 CB         27.2352    0.0381  -10.1551 C.3       6 UNK        -0.1936 
     42 C          27.5701    1.0724   -7.8546 C.2       6 UNK         0.5081 
     43 O          27.8057    2.2067   -8.2749 O.2       6 UNK        -0.5248 
     44 N          28.0350    0.6073   -6.6839 N.am      7 UNK        -0.4718 
     45 CA         28.8480    1.3369   -5.7025 C.3       7 UNK         0.0273 
     46 CB         27.9877    2.4040   -4.9866 C.3       7 UNK        -0.1935 
     47 C          30.1408    1.8962   -6.3273 C.2       7 UNK         0.5018 
     48 O          30.9222    1.1238   -6.8857 O.2       7 UNK        -0.5186 
     49 N          30.3348    3.2207   -6.2685 N.am      8 UNK        -0.4240 
     50 CA         31.4886    3.9393   -6.8168 C.3       8 UNK         0.0235 
     51 CB         31.3582    5.4342   -6.4848 C.3       8 UNK        -0.2000 
     52 C          31.7110    3.7424   -8.3277 C.2       8 UNK         0.4941 
     53 O          32.8526    3.8438   -8.7743 O.2       8 UNK        -0.5273 
     54 N          30.6503    3.4301   -9.0868 N.am      9 UNK        -0.4262 
     55 CA         30.7519    3.0896  -10.5084 C.3       9 UNK         0.0264 
     56 CB         29.3887    3.2947  -11.1861 C.3       9 UNK        -0.1955 
     57 C          31.2892    1.6657  -10.7553 C.2       9 UNK         0.5031 
     58 O          31.7462    1.3947  -11.8667 O.2       9 UNK        -0.5390 
     59 N          31.2380    0.7903   -9.7400 N.am      10 UNK        -0.4204 
     60 CA         31.7997   -0.5596   -9.7786 C.3       10 UNK         0.0237 
     61 CB         30.8481   -1.5476   -9.0815 C.3       10 UNK        -0.1985 
     62 C          33.1981   -0.5917   -9.1447 C.2       10 UNK         0.4970 
     63 O          34.1287   -1.0884   -9.7807 O.2       10 UNK        -0.4914 
     64 N          33.3271   -0.0713   -7.9157 N.am      11 UNK        -0.4285 
     65 CA         34.5977   -0.0428   -7.1674 C.3       11 UNK         0.1007 
     66 C          35.5850    1.0801   -7.5961 C.2       11 UNK         0.5703 
     67 N          35.1757    2.0970   -8.3426 N.am      11 UNK        -0.7361 
     68 O          36.7640    1.0164   -7.2555 O.2       11 UNK        -0.4986 
     69 C69        34.3735   -0.0463   -5.6311 C.3       12 UNK        -0.0947 
     70 S70        33.7876   -1.6692   -5.0409 S.3       12 UNK        -0.2240 
     71 C71        32.0997   -1.2716   -4.5059 C.3       12 UNK         0.0194 
     72 H72        28.9029    2.6328   -0.1712 H         1 UNK         0.0906 
     73 H73        28.7599    1.2335    0.8955 H         1 UNK         0.0906 
     74 H74        30.3254    1.6544    0.1982 H         1 UNK         0.0906 
     75 H75        27.8422   -0.5451   -0.1269 H         1 UNK         0.3140 
     76 H76        28.6825   -1.3572   -2.7903 H         1 UNK         0.1085 
     77 H77        26.6195   -2.6421   -0.9286 H         1 UNK         0.0836 
     78 H78        27.2600   -3.3566   -2.3849 H         1 UNK         0.0836 
     79 H79        28.7863   -5.4325   -1.8324 H         1 UNK         0.0731 
     80 H80        30.3955   -5.1414   -1.2205 H         1 UNK         0.0731 
     81 H81        31.1837   -2.5221   -2.2486 H         1 UNK         0.1312 
     82 H82        31.1308   -2.7925   -6.5241 H         1 UNK         0.1406 
     83 H83        28.9291   -5.6211   -4.1795 H         1 UNK         0.1631 
     84 H84        29.0602   -5.9346   -6.5465 H         1 UNK         0.0717 
     85 H85        30.3642   -5.1650   -7.4163 H         1 UNK         0.0717 
     86 H86        27.0038   -4.4831   -5.7591 H         1 UNK         0.0934 
     87 H87        27.5674   -2.8435   -5.6724 H         1 UNK         0.0934 
     88 H88        25.4167   -3.6944   -7.6997 H         1 UNK         0.0739 
     89 H89        24.4538   -2.4053   -5.3479 H         1 UNK         0.3093 
     90 H90        22.2729   -4.9815   -4.5140 H         1 UNK         0.0818 
     91 H91        23.0583   -4.8799   -2.1493 H         1 UNK         0.0819 
     92 H92        24.1378   -5.8812   -3.1058 H         1 UNK         0.0819 
     93 H93        24.6191   -4.2460   -2.6720 H         1 UNK         0.0819 
     94 H94        23.0150   -2.4694   -3.2383 H         1 UNK         0.3041 
     95 H95        21.0362   -0.4021   -5.3476 H         1 UNK         0.0784 
     96 H96        19.5225   -1.2186   -3.5760 H         1 UNK         0.0793 
     97 H97        20.8112   -1.1561   -2.3864 H         1 UNK         0.0793 
     98 H98        20.2137    0.3304   -3.1213 H         1 UNK         0.0793 
     99 H99        22.9135    0.6176   -4.9185 H         1 UNK         0.3024 
    100 H100       25.0193    1.0019   -4.2432 H         1 UNK         0.1171 
    101 H101       25.1936    2.8696   -2.5861 H         1 UNK         0.0786 
    102 H102       23.5183    2.6132   -3.0430 H         1 UNK         0.0786 
    103 H103       24.0983    2.0236   -1.4918 H         1 UNK         0.0786 
    104 H104       26.1338    0.6255   -1.5948 H         1 UNK         0.2977 
    105 H105       27.2714   -1.9102   -8.4785 H         1 UNK         0.3127 
    106 H106       25.7067    0.5677   -8.7588 H         1 UNK         0.0770 
    107 H107       28.3016   -0.1815  -10.1864 H         1 UNK         0.0814 
    108 H108       27.0812    0.9816  -10.6779 H         1 UNK         0.0814 
    109 H109       26.7140   -0.7276  -10.7298 H         1 UNK         0.0814 
    110 H110       27.7919   -0.3396   -6.4303 H         1 UNK         0.2983 
    111 H111       29.1655    0.6064   -4.9569 H         1 UNK         0.0947 
    112 H112       28.5516    2.9074   -4.2000 H         1 UNK         0.0806 
    113 H113       27.1288    1.9452   -4.5033 H         1 UNK         0.0806 
    114 H114       27.6088    3.1632   -5.6718 H         1 UNK         0.0806 
    115 H115       29.6269    3.7810   -5.8166 H         1 UNK         0.3000 
    116 H116       32.3771    3.5529   -6.3126 H         1 UNK         0.0850 
    117 H117       32.2183    5.9932   -6.8569 H         1 UNK         0.0810 
    118 H118       31.3090    5.6004   -5.4084 H         1 UNK         0.0810 
    119 H119       30.4662    5.8715   -6.9352 H         1 UNK         0.0810 
    120 H120       29.7390    3.3286   -8.6535 H         1 UNK         0.3040 
    121 H121       31.4566    3.7798  -10.9778 H         1 UNK         0.0766 
    122 H122       28.6223    2.6592  -10.7480 H         1 UNK         0.0812 
    123 H123       29.4400    3.0592  -12.2500 H         1 UNK         0.0812 
    124 H124       29.0549    4.3287  -11.0990 H         1 UNK         0.0812 
    125 H125       30.8994    1.1053   -8.8358 H         1 UNK         0.3205 
    126 H126       31.9060   -0.8904  -10.8141 H         1 UNK         0.0754 
    127 H127       31.3170   -2.5248   -8.9580 H         1 UNK         0.0769 
    128 H128       29.9459   -1.7062   -9.6701 H         1 UNK         0.0769 
    129 H129       30.5432   -1.1991   -8.0950 H         1 UNK         0.0769 
    130 H130       32.5142    0.3291   -7.4549 H         1 UNK         0.2981 
    131 H131       35.1295   -0.9669   -7.4042 H         1 UNK         0.0541 
    132 H132       35.8448    2.8014   -8.6078 H         1 UNK         0.3459 
    133 H133       34.2041    2.2257   -8.5892 H         1 UNK         0.3459 
    134 H134       33.6805    0.7445   -5.3384 H         1 UNK         0.0612 
    135 H135       35.3046    0.1559   -5.0982 H         1 UNK         0.0612 
    136 H136       31.6382   -0.6013   -5.2267 H         1 UNK         0.0624 
    137 H137       32.1346   -0.7334   -3.5573 H         1 UNK         0.0624 
@<TRIPOS>BOND
     1    1    2 1    
     2    1   72 1    
     3    1   73 1    
     4    1   74 1    
     5    2    3 2    
     6    2    4 am   BACKBONE|DICT|INTERRES
     7    4    5 1    
     8    4   75 1    
     9    5    6 1    
    10    5   35 1    
    11    5   76 1    
    12    6    7 1    
    13    6   77 1    
    14    6   78 1    
    15    7    8 1    
    16    8    9 1    
    17    8   79 1    
    18    8   80 1    
    19    9   10 ar   
    20    9   14 ar   
    21   10   11 ar   
    22   10   81 1    
    23   11   12 ar   
    24   11   71 1    
    25   12   13 ar   
    26   12   82 1    
    27   13   14 ar   
    28   13   15 1    
    29   14   83 1    
    30   15   16 1    
    31   15   84 1    
    32   15   85 1    
    33   16   17 1    
    34   17   18 1    
    35   17   86 1    
    36   17   87 1    
    37   18   19 1    
    38   18   37 1    
    39   18   88 1    
    40   19   20 am   BACKBONE|DICT|INTERRES
    41   19   89 1    
    42   20   21 2    
    43   20   22 1    
    44   22   23 1    
    45   22   24 1    
    46   22   90 1    
    47   23   91 1    
    48   23   92 1    
    49   23   93 1    
    50   24   25 am   BACKBONE|DICT|INTERRES
    51   24   94 1    
    52   25   26 2    
    53   25   27 1    
    54   27   28 1    
    55   27   29 1    
    56   27   95 1    
    57   28   96 1    
    58   28   97 1    
    59   28   98 1    
    60   29   30 am   BACKBONE|DICT|INTERRES
    61   29   99 1    
    62   30   31 2    
    63   30   32 1    
    64   32   33 1    
    65   32   34 1    
    66   32  100 1    
    67   33  101 1    
    68   33  102 1    
    69   33  103 1    
    70   34   35 am   BACKBONE|DICT|INTERRES
    71   34  104 1    
    72   35   36 2    
    73   37   38 2    
    74   37   39 am   BACKBONE|DICT|INTERRES
    75   39   40 1    
    76   39  105 1    
    77   40   41 1    
    78   40   42 1    
    79   40  106 1    
    80   41  107 1    
    81   41  108 1    
    82   41  109 1    
    83   42   43 2    
    84   42   44 am   BACKBONE|DICT|INTERRES
    85   44   45 1    
    86   44  110 1    
    87   45   46 1    
    88   45   47 1    
    89   45  111 1    
    90   46  112 1    
    91   46  113 1    
    92   46  114 1    
    93   47   48 2    
    94   47   49 am   BACKBONE|DICT|INTERRES
    95   49   50 1    
    96   49  115 1    
    97   50   51 1    
    98   50   52 1    
    99   50  116 1    
   100   51  117 1    
   101   51  118 1    
   102   51  119 1    
   103   52   53 2    
   104   52   54 am   BACKBONE|DICT|INTERRES
   105   54   55 1    
   106   54  120 1    
   107   55   56 1    
   108   55   57 1    
   109   55  121 1    
   110   56  122 1    
   111   56  123 1    
   112   56  124 1    
   113   57   58 2    
   114   57   59 am   BACKBONE|DICT|INTERRES
   115   59   60 1    
   116   59  125 1    
   117   60   61 1    
   118   60   62 1    
   119   60  126 1    
   120   61  127 1    
   121   61  128 1    
   122   61  129 1    
   123   62   63 2    
   124   62   64 am   BACKBONE|DICT|INTERRES
   125   64   65 1    
   126   64  130 1    
   127   65   66 1    
   128   65   69 1    
   129   65  131 1    
   130   66   67 am   BACKBONE|DICT|INTERRES
   131   66   68 2    
   132   67  132 1    
   133   67  133 1    
   134   69   70 1    
   135   69  134 1    
   136   69  135 1    
   137   70   71 1    
   138   71  136 1    
   139   71  137 1    
@<TRIPOS>SUBSTRUCTURE
     1 UNK         1 GROUP             0       ****    0 ROOT    
