@<TRIPOS>MOLECULE
3R137
137   139    1
SMALL
USER_CHARGES


@<TRIPOS>ATOM
      1 CA         28.0171   -5.6677   -6.5210 C.3       0 UNK        -0.2020 
      2 C          28.3070   -5.7141   -5.0287 C.2       0 UNK         0.4855 
      3 O          27.7226   -6.5294   -4.3154 O.2       0 UNK        -0.5197 
      4 N          29.2066   -4.8445   -4.5530 N.am      1 UNK        -0.4892 
      5 CA         29.6353   -4.7415   -3.1511 C.3       1 UNK         0.0835 
      6 C6         30.9375   -3.9159   -3.0677 C.3       12 UNK        -0.0855 
      7 S7         31.9562   -4.2072   -1.5785 S.3       12 UNK        -0.2931 
      8 C8         31.8011   -2.6418   -0.6520 C.3       12 UNK         0.0378 
      9 C9         32.0569   -1.4168   -1.5206 C.ar      12 UNK        -0.0802 
     10 C10        33.3259   -1.1694   -2.0567 C.ar      12 UNK        -0.0944 
     11 C11        33.5318   -0.0804   -2.9109 C.ar      12 UNK        -0.0787 
     12 C12        32.4645    0.7695   -3.2148 C.ar      12 UNK        -0.0862 
     13 C13        31.1963    0.5320   -2.6811 C.ar      12 UNK        -0.0733 
     14 C14        31.0003   -0.5536   -1.8254 C.ar      12 UNK        -0.0832 
     15 C15        30.0253    1.4187   -3.0607 C.3       12 UNK         0.0240 
     16 S16        29.0903    0.6651   -4.4215 S.3       12 UNK        -0.2522 
     17 C17        27.7505    1.8830   -4.6109 C.3       12 UNK        -0.0967 
     18 CA         27.0615    1.7386   -5.9859 C.3       5 UNK         0.0660 
     19 N          26.3851    0.4427   -6.1245 N.am      5 UNK        -0.4015 
     20 C          25.7818   -0.0240   -7.2301 C.2       4 UNK         0.4946 
     21 O          25.7343    0.5865   -8.2984 O.2       4 UNK        -0.5353 
     22 CA         25.0205   -1.3573   -7.1044 C.3       4 UNK         0.0277 
     23 CB         25.9394   -2.5287   -7.4878 C.3       4 UNK        -0.1981 
     24 N          24.4561   -1.5985   -5.7709 N.am      4 UNK        -0.4209 
     25 C          23.6781   -0.7515   -5.0787 C.2       3 UNK         0.4942 
     26 O          23.2505    0.3095   -5.5355 O.2       3 UNK        -0.5208 
     27 CA         23.3685   -1.1044   -3.6119 C.3       3 UNK         0.0250 
     28 CB         21.9251   -1.6177   -3.4825 C.3       3 UNK        -0.1990 
     29 N          24.2778   -2.0672   -2.9725 N.am      3 UNK        -0.4232 
     30 C          25.6138   -1.9816   -2.8700 C.2       2 UNK         0.4993 
     31 O          26.2842   -1.1008   -3.4115 O.2       2 UNK        -0.5286 
     32 CA         26.3226   -3.0680   -2.0433 C.3       2 UNK         0.0209 
     33 CB         25.4176   -4.2727   -1.6827 C.3       2 UNK        -0.1931 
     34 N          27.5169   -3.5235   -2.7559 N.am      2 UNK        -0.4546 
     35 C          28.5318   -4.2057   -2.2066 C.2       1 UNK         0.5154 
     36 O          28.5990   -4.4519   -1.0009 O.2       1 UNK        -0.5181 
     37 C          26.1734    2.9638   -6.2961 C.2       5 UNK         0.5014 
     38 O          26.7226    4.0326   -6.5679 O.2       5 UNK        -0.5248 
     39 N          24.8396    2.8072   -6.2918 N.am      6 UNK        -0.4434 
     40 CA         23.8985    3.8183   -6.7802 C.3       6 UNK         0.0363 
     41 CB         22.4713    3.4317   -6.3616 C.3       6 UNK        -0.1936 
     42 C          23.9720    4.0288   -8.3067 C.2       6 UNK         0.5081 
     43 O          23.6300    5.1165   -8.7719 O.2       6 UNK        -0.5248 
     44 N          24.4075    3.0047   -9.0555 N.am      7 UNK        -0.4718 
     45 CA         24.6119    3.0576  -10.5026 C.3       7 UNK         0.0273 
     46 CB         24.1332    1.7435  -11.1438 C.3       7 UNK        -0.1935 
     47 C          26.0863    3.3284  -10.8338 C.2       7 UNK         0.5018 
     48 O          26.3689    4.2633  -11.5845 O.2       7 UNK        -0.5186 
     49 N          26.9981    2.5252  -10.2699 N.am      8 UNK        -0.4240 
     50 CA         28.4454    2.6325  -10.4608 C.3       8 UNK         0.0235 
     51 CB         28.8518    2.0712  -11.8368 C.3       8 UNK        -0.2000 
     52 C          29.1463    1.8612   -9.3409 C.2       8 UNK         0.4941 
     53 O          28.6216    0.8372   -8.9029 O.2       8 UNK        -0.5273 
     54 N          30.3165    2.3459   -8.9032 N.am      9 UNK        -0.4262 
     55 CA         31.1061    1.8051   -7.7889 C.3       9 UNK         0.0264 
     56 CB         32.1811    2.8317   -7.3873 C.3       9 UNK        -0.1955 
     57 C          31.7068    0.4136   -8.0769 C.2       9 UNK         0.5031 
     58 O          32.9185    0.2787   -8.2598 O.2       9 UNK        -0.5390 
     59 N          30.8378   -0.5994   -8.1229 N.am      10 UNK        -0.4204 
     60 CA         31.1587   -2.0126   -8.2871 C.3       10 UNK         0.0237 
     61 CB         29.8965   -2.7467   -8.7772 C.3       10 UNK        -0.1985 
     62 C          31.7072   -2.5989   -6.9754 C.2       10 UNK         0.4970 
     63 O          30.9755   -3.2871   -6.2603 O.2       10 UNK        -0.4914 
     64 N          32.9804   -2.2996   -6.6874 N.am      11 UNK        -0.4285 
     65 CA         33.7315   -2.7667   -5.5085 C.3       11 UNK         0.1007 
     66 C          33.9913   -4.3034   -5.4516 C.2       11 UNK         0.5703 
     67 N          33.7522   -5.0656   -6.5125 N.am      11 UNK        -0.7361 
     68 O          34.4233   -4.8145   -4.4220 O.2       11 UNK        -0.4986 
     69 C69        35.0708   -2.0006   -5.3268 C.3       12 UNK        -0.0947 
     70 S70        34.9087   -0.1838   -5.3091 S.3       12 UNK        -0.2240 
     71 C71        34.8977    0.1822   -3.5251 C.3       12 UNK         0.0194 
     72 H72        28.2731   -6.6210   -6.9824 H         1 UNK         0.0906 
     73 H73        26.9579   -5.4791   -6.6932 H         1 UNK         0.0906 
     74 H74        28.5879   -4.8860   -7.0211 H         1 UNK         0.0906 
     75 H75        29.6970   -4.2289   -5.2003 H         1 UNK         0.3140 
     76 H76        29.8596   -5.7568   -2.8164 H         1 UNK         0.1085 
     77 H77        30.7315   -2.8595   -3.2344 H         1 UNK         0.0836 
     78 H78        31.5826   -4.2108   -3.8932 H         1 UNK         0.0836 
     79 H79        32.5089   -2.6491    0.1780 H         1 UNK         0.0731 
     80 H80        30.8065   -2.5996   -0.2049 H         1 UNK         0.0731 
     81 H81        34.1418   -1.8429   -1.8320 H         1 UNK         0.1312 
     82 H82        32.6180    1.6013   -3.8889 H         1 UNK         0.1406 
     83 H83        30.0115   -0.7476   -1.4312 H         1 UNK         0.1631 
     84 H84        30.3753    2.4082   -3.3591 H         1 UNK         0.0717 
     85 H85        29.3691    1.5625   -2.2009 H         1 UNK         0.0717 
     86 H86        27.0328    1.7561   -3.7978 H         1 UNK         0.0934 
     87 H87        28.1798    2.8808   -4.4965 H         1 UNK         0.0934 
     88 H88        27.8468    1.7621   -6.7374 H         1 UNK         0.0739 
     89 H89        26.3665   -0.1282   -5.2851 H         1 UNK         0.3093 
     90 H90        24.1875   -1.3233   -7.8094 H         1 UNK         0.0818 
     91 H91        26.3679   -2.3785   -8.4801 H         1 UNK         0.0819 
     92 H92        26.7697   -2.6357   -6.7884 H         1 UNK         0.0819 
     93 H93        25.3933   -3.4717   -7.5126 H         1 UNK         0.0819 
     94 H94        24.7507   -2.4423   -5.3032 H         1 UNK         0.3041 
     95 H95        23.4494   -0.1734   -3.0472 H         1 UNK         0.0784 
     96 H96        21.2174   -0.9118   -3.9202 H         1 UNK         0.0793 
     97 H97        21.7896   -2.5726   -3.9920 H         1 UNK         0.0793 
     98 H98        21.6408   -1.7491   -2.4383 H         1 UNK         0.0793 
     99 H99        23.8314   -2.8456   -2.5091 H         1 UNK         0.3024 
    100 H100       26.6415   -2.5845   -1.1173 H         1 UNK         0.1171 
    101 H101       25.9506   -5.0055   -1.0771 H         1 UNK         0.0786 
    102 H102       24.5524   -3.9656   -1.0938 H         1 UNK         0.0786 
    103 H103       25.0575   -4.7895   -2.5734 H         1 UNK         0.0786 
    104 H104       27.5590   -3.2983   -3.7403 H         1 UNK         0.2977 
    105 H105       24.4448    1.9026   -6.0513 H         1 UNK         0.3127 
    106 H106       24.1464    4.7695   -6.3042 H         1 UNK         0.0770 
    107 H107       22.1569    2.4943   -6.8223 H         1 UNK         0.0814 
    108 H108       21.7557    4.1983   -6.6618 H         1 UNK         0.0814 
    109 H109       22.3903    3.3172   -5.2805 H         1 UNK         0.0814 
    110 H110       24.7226    2.1538   -8.5955 H         1 UNK         0.2983 
    111 H111       24.0201    3.8685  -10.9332 H         1 UNK         0.0947 
    112 H112       24.6774    0.8782  -10.7640 H         1 UNK         0.0806 
    113 H113       24.2718    1.7659  -12.2255 H         1 UNK         0.0806 
    114 H114       23.0723    1.5776  -10.9565 H         1 UNK         0.0806 
    115 H115       26.7029    1.7830   -9.6370 H         1 UNK         0.3000 
    116 H116       28.7316    3.6844  -10.3941 H         1 UNK         0.0850 
    117 H117       29.9327    2.1171  -11.9759 H         1 UNK         0.0810 
    118 H118       28.3990    2.6370  -12.6510 H         1 UNK         0.0810 
    119 H119       28.5520    1.0281  -11.9470 H         1 UNK         0.0810 
    120 H120       30.6955    3.1661   -9.3547 H         1 UNK         0.3040 
    121 H121       30.4371    1.6892   -6.9340 H         1 UNK         0.0766 
    122 H122       31.7335    3.7750   -7.0742 H         1 UNK         0.0812 
    123 H123       32.8688    3.0395   -8.2080 H         1 UNK         0.0812 
    124 H124       32.7762    2.4639   -6.5499 H         1 UNK         0.0812 
    125 H125       29.8516   -0.3529   -8.0803 H         1 UNK         0.3205 
    126 H126       31.9286   -2.1158   -9.0547 H         1 UNK         0.0754 
    127 H127       30.0870   -3.8134   -8.9022 H         1 UNK         0.0769 
    128 H128       29.5649   -2.3608   -9.7415 H         1 UNK         0.0769 
    129 H129       29.0686   -2.6389   -8.0754 H         1 UNK         0.0769 
    130 H130       33.4653   -1.6491   -7.2933 H         1 UNK         0.2981 
    131 H131       33.1102   -2.5373   -4.6421 H         1 UNK         0.0541 
    132 H132       33.9263   -6.0564   -6.4559 H         1 UNK         0.3459 
    133 H133       33.4002   -4.6621   -7.3648 H         1 UNK         0.3459 
    134 H134       35.5682   -2.3132   -4.4069 H         1 UNK         0.0612 
    135 H135       35.7564   -2.2552   -6.1371 H         1 UNK         0.0612 
    136 H136       35.6767   -0.3908   -3.0201 H         1 UNK         0.0624 
    137 H137       35.1537    1.2333   -3.3844 H         1 UNK         0.0624 
@<TRIPOS>BOND
     1    1    2 1    
     2    1   72 1    
     3    1   73 1    
     4    1   74 1    
     5    2    3 2    
     6    2    4 am   BACKBONE|DICT|INTERRES
     7    4    5 1    
     8    4   75 1    
     9    5    6 1    
    10    5   35 1    
    11    5   76 1    
    12    6    7 1    
    13    6   77 1    
    14    6   78 1    
    15    7    8 1    
    16    8    9 1    
    17    8   79 1    
    18    8   80 1    
    19    9   10 ar   
    20    9   14 ar   
    21   10   11 ar   
    22   10   81 1    
    23   11   12 ar   
    24   11   71 1    
    25   12   13 ar   
    26   12   82 1    
    27   13   14 ar   
    28   13   15 1    
    29   14   83 1    
    30   15   16 1    
    31   15   84 1    
    32   15   85 1    
    33   16   17 1    
    34   17   18 1    
    35   17   86 1    
    36   17   87 1    
    37   18   19 1    
    38   18   37 1    
    39   18   88 1    
    40   19   20 am   BACKBONE|DICT|INTERRES
    41   19   89 1    
    42   20   21 2    
    43   20   22 1    
    44   22   23 1    
    45   22   24 1    
    46   22   90 1    
    47   23   91 1    
    48   23   92 1    
    49   23   93 1    
    50   24   25 am   BACKBONE|DICT|INTERRES
    51   24   94 1    
    52   25   26 2    
    53   25   27 1    
    54   27   28 1    
    55   27   29 1    
    56   27   95 1    
    57   28   96 1    
    58   28   97 1    
    59   28   98 1    
    60   29   30 am   BACKBONE|DICT|INTERRES
    61   29   99 1    
    62   30   31 2    
    63   30   32 1    
    64   32   33 1    
    65   32   34 1    
    66   32  100 1    
    67   33  101 1    
    68   33  102 1    
    69   33  103 1    
    70   34   35 am   BACKBONE|DICT|INTERRES
    71   34  104 1    
    72   35   36 2    
    73   37   38 2    
    74   37   39 am   BACKBONE|DICT|INTERRES
    75   39   40 1    
    76   39  105 1    
    77   40   41 1    
    78   40   42 1    
    79   40  106 1    
    80   41  107 1    
    81   41  108 1    
    82   41  109 1    
    83   42   43 2    
    84   42   44 am   BACKBONE|DICT|INTERRES
    85   44   45 1    
    86   44  110 1    
    87   45   46 1    
    88   45   47 1    
    89   45  111 1    
    90   46  112 1    
    91   46  113 1    
    92   46  114 1    
    93   47   48 2    
    94   47   49 am   BACKBONE|DICT|INTERRES
    95   49   50 1    
    96   49  115 1    
    97   50   51 1    
    98   50   52 1    
    99   50  116 1    
   100   51  117 1    
   101   51  118 1    
   102   51  119 1    
   103   52   53 2    
   104   52   54 am   BACKBONE|DICT|INTERRES
   105   54   55 1    
   106   54  120 1    
   107   55   56 1    
   108   55   57 1    
   109   55  121 1    
   110   56  122 1    
   111   56  123 1    
   112   56  124 1    
   113   57   58 2    
   114   57   59 am   BACKBONE|DICT|INTERRES
   115   59   60 1    
   116   59  125 1    
   117   60   61 1    
   118   60   62 1    
   119   60  126 1    
   120   61  127 1    
   121   61  128 1    
   122   61  129 1    
   123   62   63 2    
   124   62   64 am   BACKBONE|DICT|INTERRES
   125   64   65 1    
   126   64  130 1    
   127   65   66 1    
   128   65   69 1    
   129   65  131 1    
   130   66   67 am   BACKBONE|DICT|INTERRES
   131   66   68 2    
   132   67  132 1    
   133   67  133 1    
   134   69   70 1    
   135   69  134 1    
   136   69  135 1    
   137   70   71 1    
   138   71  136 1    
   139   71  137 1    
@<TRIPOS>SUBSTRUCTURE
     1 UNK         1 GROUP             0       ****    0 ROOT    
