@<TRIPOS>MOLECULE
3R137
137   139    1
SMALL
USER_CHARGES


@<TRIPOS>ATOM
      1 CA         31.6052    0.5561   -0.1286 C.3       0 UNK        -0.2020 
      2 C          30.6105   -0.3418   -0.8470 C.2       0 UNK         0.4855 
      3 O          30.2782   -0.0850   -2.0030 O.2       0 UNK        -0.5197 
      4 N          30.1146   -1.3854   -0.1708 N.am      1 UNK        -0.4892 
      5 CA         29.2072   -2.4092   -0.7119 C.3       1 UNK         0.0835 
      6 C6         29.3396   -3.7513    0.0616 C.3       12 UNK        -0.0855 
      7 S7         31.0424   -4.4168    0.0602 S.3       12 UNK        -0.2931 
      8 C8         30.9691   -5.6488   -1.2813 C.3       12 UNK         0.0378 
      9 C9         30.7292   -4.9867   -2.6296 C.ar      12 UNK        -0.0802 
     10 C10        31.7863   -4.3792   -3.3127 C.ar      12 UNK        -0.0944 
     11 C11        31.5700   -3.7242   -4.5291 C.ar      12 UNK        -0.0787 
     12 C12        30.2718   -3.6801   -5.0555 C.ar      12 UNK        -0.0862 
     13 C13        29.2061   -4.2894   -4.3834 C.ar      12 UNK        -0.0733 
     14 C14        29.4452   -4.9553   -3.1793 C.ar      12 UNK        -0.0832 
     15 C15        27.7832   -4.1694   -4.9091 C.3       12 UNK         0.0240 
     16 S16        27.6070   -4.6972   -6.6454 S.3       12 UNK        -0.2522 
     17 C17        25.9655   -3.9783   -7.0239 C.3       12 UNK        -0.0967 
     18 CA         25.9263   -2.6568   -7.8544 C.3       5 UNK         0.0660 
     19 N          24.6718   -1.9369   -7.6188 N.am      5 UNK        -0.4015 
     20 C          24.2725   -0.8112   -8.2285 C.2       4 UNK         0.4946 
     21 O          24.8775   -0.2731   -9.1547 O.2       4 UNK        -0.5353 
     22 CA         22.9992   -0.1450   -7.6779 C.3       4 UNK         0.0277 
     23 CB         21.7660   -0.6100   -8.4684 C.3       4 UNK        -0.1981 
     24 N          22.7799   -0.3766   -6.2445 N.am      4 UNK        -0.4209 
     25 C          23.6172   -0.0071   -5.2633 C.2       3 UNK         0.4942 
     26 O          24.6789    0.5890   -5.4674 O.2       3 UNK        -0.5208 
     27 CA         23.1715   -0.3588   -3.8284 C.3       3 UNK         0.0250 
     28 CB         22.6889   -1.8221   -3.6970 C.3       3 UNK        -0.1990 
     29 N          24.1892   -0.0496   -2.8148 N.am      3 UNK        -0.4232 
     30 C          25.3841   -0.6348   -2.6405 C.2       2 UNK         0.4993 
     31 O          25.7941   -1.5838   -3.3152 O.2       2 UNK        -0.5286 
     32 CA         26.2796    0.0051   -1.5574 C.3       2 UNK         0.0209 
     33 CB         25.5345    0.2315   -0.2216 C.3       2 UNK        -0.1931 
     34 N          27.5437   -0.7107   -1.3381 N.am      2 UNK        -0.4546 
     35 C          27.7390   -1.9186   -0.7905 C.2       1 UNK         0.5154 
     36 O          26.8324   -2.6186   -0.3339 O.2       1 UNK        -0.5181 
     37 C          27.1422   -1.7251   -7.6524 C.2       5 UNK         0.5014 
     38 O          27.9518   -1.5778   -8.5697 O.2       5 UNK        -0.5248 
     39 N          27.2222   -1.0802   -6.4787 N.am      6 UNK        -0.4434 
     40 CA         28.3069   -0.1633   -6.1317 C.3       6 UNK         0.0363 
     41 CB         28.2592    0.1697   -4.6382 C.3       6 UNK        -0.1936 
     42 C          28.2758    1.1260   -6.9552 C.2       6 UNK         0.5081 
     43 O          29.3417    1.6315   -7.2992 O.2       6 UNK        -0.5248 
     44 N          27.0718    1.6205   -7.2758 N.am      7 UNK        -0.4718 
     45 CA         26.8695    2.7868   -8.1379 C.3       7 UNK         0.0273 
     46 CB         25.3884    3.1955   -8.1239 C.3       7 UNK        -0.1935 
     47 C          27.3618    2.5488   -9.5760 C.2       7 UNK         0.5018 
     48 O          28.0199    3.4243  -10.1384 O.2       7 UNK        -0.5186 
     49 N          27.0589    1.3666  -10.1316 N.am      8 UNK        -0.4240 
     50 CA         27.5053    0.9363  -11.4573 C.3       8 UNK         0.0235 
     51 CB         26.6997   -0.2963  -11.8995 C.3       8 UNK        -0.2000 
     52 C          29.0137    0.6465  -11.5106 C.2       8 UNK         0.4941 
     53 O          29.6793    1.0892  -12.4476 O.2       8 UNK        -0.5273 
     54 N          29.5254   -0.0916  -10.5157 N.am      9 UNK        -0.4262 
     55 CA         30.9315   -0.4989  -10.4326 C.3       9 UNK         0.0264 
     56 CB         31.0321   -1.7461   -9.5421 C.3       9 UNK        -0.1955 
     57 C          31.8845    0.6071   -9.9383 C.2       9 UNK         0.5031 
     58 O          33.0957    0.4598  -10.1094 O.2       9 UNK        -0.5390 
     59 N          31.3366    1.6745   -9.3383 N.am      10 UNK        -0.4204 
     60 CA         32.0259    2.8002   -8.6939 C.3       10 UNK         0.0237 
     61 CB         32.8602    3.6098   -9.7102 C.3       10 UNK        -0.1985 
     62 C          32.8246    2.3594   -7.4506 C.2       10 UNK         0.4970 
     63 O          33.9706    2.7768   -7.2692 O.2       10 UNK        -0.4914 
     64 N          32.2006    1.5134   -6.6228 N.am      11 UNK        -0.4285 
     65 CA         32.7623    0.9994   -5.3640 C.3       11 UNK         0.1007 
     66 C          32.6504    2.0342   -4.2122 C.2       11 UNK         0.5703 
     67 N          33.5350    1.9581   -3.2265 N.am      11 UNK        -0.7361 
     68 O          31.7665    2.8894   -4.1902 O.2       11 UNK        -0.4986 
     69 C69        32.1309   -0.3591   -4.9621 C.3       12 UNK        -0.0947 
     70 S70        32.3856   -1.6277   -6.2450 S.3       12 UNK        -0.2240 
     71 C71        32.7651   -3.1158   -5.2630 C.3       12 UNK         0.0194 
     72 H72        31.7779    0.2355    0.8985 H         1 UNK         0.0906 
     73 H73        32.5602    0.5472   -0.6531 H         1 UNK         0.0906 
     74 H74        31.2376    1.5816   -0.1085 H         1 UNK         0.0906 
     75 H75        30.4100   -1.5391    0.7829 H         1 UNK         0.3140 
     76 H76        29.5058   -2.5932   -1.7455 H         1 UNK         0.1085 
     77 H77        29.0326   -3.6176    1.1006 H         1 UNK         0.0836 
     78 H78        28.6673   -4.5062   -0.3494 H         1 UNK         0.0836 
     79 H79        31.9100   -6.2005   -1.3075 H         1 UNK         0.0731 
     80 H80        30.1918   -6.3830   -1.0633 H         1 UNK         0.0731 
     81 H81        32.7808   -4.4122   -2.8885 H         1 UNK         0.1312 
     82 H82        30.0817   -3.1719   -5.9907 H         1 UNK         0.1406 
     83 H83        28.6238   -5.4178   -2.6488 H         1 UNK         0.1631 
     84 H84        27.4767   -3.1304   -4.8005 H         1 UNK         0.0717 
     85 H85        27.0918   -4.7532   -4.2995 H         1 UNK         0.0717 
     86 H86        25.4465   -3.8368   -6.0739 H         1 UNK         0.0934 
     87 H87        25.3854   -4.7411   -7.5457 H         1 UNK         0.0934 
     88 H88        25.9346   -2.9361   -8.9102 H         1 UNK         0.0739 
     89 H89        24.0874   -2.2905   -6.8768 H         1 UNK         0.3093 
     90 H90        23.1071    0.9315   -7.8198 H         1 UNK         0.0818 
     91 H91        20.8691   -0.0734   -8.1584 H         1 UNK         0.0819 
     92 H92        21.8964   -0.4268   -9.5362 H         1 UNK         0.0819 
     93 H93        21.5811   -1.6775   -8.3417 H         1 UNK         0.0819 
     94 H94        21.9184   -0.8392   -5.9916 H         1 UNK         0.3041 
     95 H95        22.3251    0.2924   -3.6049 H         1 UNK         0.0784 
     96 H96        21.7789   -1.9994   -4.2705 H         1 UNK         0.0793 
     97 H97        23.4386   -2.5328   -4.0465 H         1 UNK         0.0793 
     98 H98        22.4590   -2.0687   -2.6603 H         1 UNK         0.0793 
     99 H99        23.9757    0.7495   -2.2351 H         1 UNK         0.3024 
    100 H100       26.5664    0.9840   -1.9451 H         1 UNK         0.1171 
    101 H101       26.2089    0.6055    0.5489 H         1 UNK         0.0786 
    102 H102       25.0802   -0.6872    0.1511 H         1 UNK         0.0786 
    103 H103       24.7373    0.9678   -0.3260 H         1 UNK         0.0786 
    104 H104       28.3778   -0.2547   -1.6996 H         1 UNK         0.2977 
    105 H105       26.4905   -1.1983   -5.7893 H         1 UNK         0.3127 
    106 H106       29.2518   -0.6689   -6.3415 H         1 UNK         0.0770 
    107 H107       27.3174    0.6464   -4.3693 H         1 UNK         0.0814 
    108 H108       29.0569    0.8601   -4.3608 H         1 UNK         0.0814 
    109 H109       28.3810   -0.7288   -4.0337 H         1 UNK         0.0814 
    110 H110       26.2460    1.1586   -6.9111 H         1 UNK         0.2983 
    111 H111       27.4536    3.6097   -7.7197 H         1 UNK         0.0947 
    112 H112       25.2380    4.1238   -8.6765 H         1 UNK         0.0806 
    113 H113       25.0287    3.3592   -7.1078 H         1 UNK         0.0806 
    114 H114       24.7566    2.4383   -8.5871 H         1 UNK         0.0806 
    115 H115       26.4622    0.7209   -9.6191 H         1 UNK         0.3000 
    116 H116       27.2979    1.7453  -12.1612 H         1 UNK         0.0850 
    117 H117       27.0111   -0.6344  -12.8887 H         1 UNK         0.0810 
    118 H118       25.6340   -0.0730  -11.9527 H         1 UNK         0.0810 
    119 H119       26.8291   -1.1321  -11.2103 H         1 UNK         0.0810 
    120 H120       28.9010   -0.4639   -9.8019 H         1 UNK         0.3040 
    121 H121       31.2669   -0.7797  -11.4334 H         1 UNK         0.0766 
    122 H122       32.0664   -2.0756   -9.4346 H         1 UNK         0.0812 
    123 H123       30.6424   -1.5515   -8.5433 H         1 UNK         0.0812 
    124 H124       30.4668   -2.5788   -9.9606 H         1 UNK         0.0812 
    125 H125       30.3367    1.6484   -9.1731 H         1 UNK         0.3205 
    126 H126       31.2384    3.4592   -8.3249 H         1 UNK         0.0754 
    127 H127       33.2526    4.5195   -9.2540 H         1 UNK         0.0769 
    128 H128       32.2566    3.9112  -10.5664 H         1 UNK         0.0769 
    129 H129       33.7128    3.0419  -10.0834 H         1 UNK         0.0769 
    130 H130       31.2271    1.2972   -6.8084 H         1 UNK         0.2981 
    131 H131       33.8273    0.8241   -5.5301 H         1 UNK         0.0541 
    132 H132       34.2647    1.2630   -3.2320 H         1 UNK         0.3459 
    133 H133       33.4776    2.6195   -2.4687 H         1 UNK         0.3459 
    134 H134       31.0620   -0.2566   -4.7829 H         1 UNK         0.0612 
    135 H135       32.5599   -0.7153   -4.0238 H         1 UNK         0.0612 
    136 H136       33.1671   -3.8726   -5.9373 H         1 UNK         0.0624 
    137 H137       33.5647   -2.8741   -4.5610 H         1 UNK         0.0624 
@<TRIPOS>BOND
     1    1    2 1    
     2    1   72 1    
     3    1   73 1    
     4    1   74 1    
     5    2    3 2    
     6    2    4 am   BACKBONE|DICT|INTERRES
     7    4    5 1    
     8    4   75 1    
     9    5    6 1    
    10    5   35 1    
    11    5   76 1    
    12    6    7 1    
    13    6   77 1    
    14    6   78 1    
    15    7    8 1    
    16    8    9 1    
    17    8   79 1    
    18    8   80 1    
    19    9   10 ar   
    20    9   14 ar   
    21   10   11 ar   
    22   10   81 1    
    23   11   12 ar   
    24   11   71 1    
    25   12   13 ar   
    26   12   82 1    
    27   13   14 ar   
    28   13   15 1    
    29   14   83 1    
    30   15   16 1    
    31   15   84 1    
    32   15   85 1    
    33   16   17 1    
    34   17   18 1    
    35   17   86 1    
    36   17   87 1    
    37   18   19 1    
    38   18   37 1    
    39   18   88 1    
    40   19   20 am   BACKBONE|DICT|INTERRES
    41   19   89 1    
    42   20   21 2    
    43   20   22 1    
    44   22   23 1    
    45   22   24 1    
    46   22   90 1    
    47   23   91 1    
    48   23   92 1    
    49   23   93 1    
    50   24   25 am   BACKBONE|DICT|INTERRES
    51   24   94 1    
    52   25   26 2    
    53   25   27 1    
    54   27   28 1    
    55   27   29 1    
    56   27   95 1    
    57   28   96 1    
    58   28   97 1    
    59   28   98 1    
    60   29   30 am   BACKBONE|DICT|INTERRES
    61   29   99 1    
    62   30   31 2    
    63   30   32 1    
    64   32   33 1    
    65   32   34 1    
    66   32  100 1    
    67   33  101 1    
    68   33  102 1    
    69   33  103 1    
    70   34   35 am   BACKBONE|DICT|INTERRES
    71   34  104 1    
    72   35   36 2    
    73   37   38 2    
    74   37   39 am   BACKBONE|DICT|INTERRES
    75   39   40 1    
    76   39  105 1    
    77   40   41 1    
    78   40   42 1    
    79   40  106 1    
    80   41  107 1    
    81   41  108 1    
    82   41  109 1    
    83   42   43 2    
    84   42   44 am   BACKBONE|DICT|INTERRES
    85   44   45 1    
    86   44  110 1    
    87   45   46 1    
    88   45   47 1    
    89   45  111 1    
    90   46  112 1    
    91   46  113 1    
    92   46  114 1    
    93   47   48 2    
    94   47   49 am   BACKBONE|DICT|INTERRES
    95   49   50 1    
    96   49  115 1    
    97   50   51 1    
    98   50   52 1    
    99   50  116 1    
   100   51  117 1    
   101   51  118 1    
   102   51  119 1    
   103   52   53 2    
   104   52   54 am   BACKBONE|DICT|INTERRES
   105   54   55 1    
   106   54  120 1    
   107   55   56 1    
   108   55   57 1    
   109   55  121 1    
   110   56  122 1    
   111   56  123 1    
   112   56  124 1    
   113   57   58 2    
   114   57   59 am   BACKBONE|DICT|INTERRES
   115   59   60 1    
   116   59  125 1    
   117   60   61 1    
   118   60   62 1    
   119   60  126 1    
   120   61  127 1    
   121   61  128 1    
   122   61  129 1    
   123   62   63 2    
   124   62   64 am   BACKBONE|DICT|INTERRES
   125   64   65 1    
   126   64  130 1    
   127   65   66 1    
   128   65   69 1    
   129   65  131 1    
   130   66   67 am   BACKBONE|DICT|INTERRES
   131   66   68 2    
   132   67  132 1    
   133   67  133 1    
   134   69   70 1    
   135   69  134 1    
   136   69  135 1    
   137   70   71 1    
   138   71  136 1    
   139   71  137 1    
@<TRIPOS>SUBSTRUCTURE
     1 UNK         1 GROUP             0       ****    0 ROOT    
