@<TRIPOS>MOLECULE
3R137
137   139    1
SMALL
USER_CHARGES


@<TRIPOS>ATOM
      1 CA         23.9477   -6.8443   -2.5089 C.3       0 UNK        -0.2020 
      2 C          25.0208   -5.9088   -1.9734 C.2       0 UNK         0.4855 
      3 O          24.9228   -5.4491   -0.8349 O.2       0 UNK        -0.5197 
      4 N          26.0416   -5.6079   -2.7871 N.am      1 UNK        -0.4892 
      5 CA         27.1664   -4.7222   -2.4594 C.3       1 UNK         0.0835 
      6 C6         28.4141   -5.0942   -3.3054 C.3       12 UNK        -0.0855 
      7 S7         29.9775   -4.4469   -2.6136 S.3       12 UNK        -0.2931 
      8 C8         30.5835   -3.3963   -3.9803 C.3       12 UNK         0.0378 
      9 C9         31.1860   -2.0815   -3.5039 C.ar      12 UNK        -0.0802 
     10 C10        32.4021   -1.6280   -4.0259 C.ar      12 UNK        -0.0944 
     11 C11        32.9179   -0.3817   -3.6493 C.ar      12 UNK        -0.0787 
     12 C12        32.2117    0.4042   -2.7329 C.ar      12 UNK        -0.0862 
     13 C13        31.0016   -0.0426   -2.1969 C.ar      12 UNK        -0.0733 
     14 C14        30.4956   -1.2840   -2.5875 C.ar      12 UNK        -0.0832 
     15 C15        30.2446    0.8131   -1.1928 C.3       12 UNK         0.0240 
     16 S16        29.2123    2.0681   -2.0126 S.3       12 UNK        -0.2522 
     17 C17        27.9261    1.0451   -2.8039 C.3       12 UNK        -0.0967 
     18 CA         27.9708    1.1334   -4.3520 C.3       5 UNK         0.0660 
     19 N          27.4843   -0.0922   -4.9987 N.am      5 UNK        -0.4015 
     20 C          27.4505   -0.3020   -6.3239 C.2       4 UNK         0.4946 
     21 O          27.9215    0.4740   -7.1516 O.2       4 UNK        -0.5353 
     22 CA         26.7098   -1.5490   -6.8299 C.3       4 UNK         0.0277 
     23 CB         27.6465   -2.7589   -6.9275 C.3       4 UNK        -0.1981 
     24 N          25.5467   -1.8723   -6.0045 N.am      4 UNK        -0.4209 
     25 C          24.4136   -1.1554   -5.9983 C.2       3 UNK         0.4942 
     26 O          24.2082   -0.1915   -6.7359 O.2       3 UNK        -0.5208 
     27 CA         23.3549   -1.5528   -4.9561 C.3       3 UNK         0.0250 
     28 CB         22.5337   -2.7575   -5.4430 C.3       3 UNK        -0.1990 
     29 N          23.9414   -1.8521   -3.6465 N.am      3 UNK        -0.4232 
     30 C          24.5872   -0.9567   -2.8858 C.2       2 UNK         0.4993 
     31 O          24.7155    0.2299   -3.1875 O.2       2 UNK        -0.5286 
     32 CA         25.2403   -1.4785   -1.5949 C.3       2 UNK         0.0209 
     33 CB         24.2391   -1.4291   -0.4304 C.3       2 UNK        -0.1931 
     34 N          25.7931   -2.8337   -1.7044 N.am      2 UNK        -0.4546 
     35 C          26.7390   -3.2380   -2.5644 C.2       1 UNK         0.5154 
     36 O          27.2188   -2.5026   -3.4295 O.2       1 UNK        -0.5181 
     37 C          27.2112    2.3797   -4.8531 C.2       5 UNK         0.5014 
     38 O          27.8402    3.3405   -5.2984 O.2       5 UNK        -0.5248 
     39 N          25.8712    2.3160   -4.8114 N.am      6 UNK        -0.4434 
     40 CA         24.9633    3.3610   -5.2920 C.3       6 UNK         0.0363 
     41 CB         23.5188    2.9898   -4.9212 C.3       6 UNK        -0.1936 
     42 C          25.0832    3.6302   -6.8027 C.2       6 UNK         0.5081 
     43 O          24.9944    4.7854   -7.2192 O.2       6 UNK        -0.5248 
     44 N          25.3017    2.5703   -7.5922 N.am      7 UNK        -0.4718 
     45 CA         25.5259    2.6436   -9.0391 C.3       7 UNK         0.0273 
     46 CB         25.2534    1.2600   -9.6519 C.3       7 UNK        -0.1935 
     47 C          26.9371    3.1259   -9.4306 C.2       7 UNK         0.5018 
     48 O          27.1425    3.4499  -10.6011 O.2       7 UNK        -0.5186 
     49 N          27.8776    3.1348   -8.4722 N.am      8 UNK        -0.4240 
     50 CA         29.3220    3.3501   -8.6346 C.3       8 UNK         0.0235 
     51 CB         29.6258    4.7959   -9.0820 C.3       8 UNK        -0.2000 
     52 C          29.9610    2.2779   -9.5420 C.2       8 UNK         0.4941 
     53 O          30.7290    2.6045  -10.4498 O.2       8 UNK        -0.5273 
     54 N          29.5954    1.0177   -9.2870 N.am      9 UNK        -0.4262 
     55 CA         29.9858   -0.1740  -10.0336 C.3       9 UNK         0.0264 
     56 CB         28.7006   -0.8194  -10.5899 C.3       9 UNK        -0.1955 
     57 C          30.7644   -1.1428   -9.1254 C.2       9 UNK         0.5031 
     58 O          31.1097   -0.7967   -7.9929 O.2       9 UNK        -0.5390 
     59 N          31.0285   -2.3480   -9.6508 N.am      10 UNK        -0.4204 
     60 CA         31.7690   -3.4691   -9.0556 C.3       10 UNK         0.0237 
     61 CB         31.1376   -3.9639   -7.7369 C.3       10 UNK        -0.1985 
     62 C          33.2722   -3.1902   -8.9061 C.2       10 UNK         0.4970 
     63 O          34.0722   -3.8774   -9.5428 O.2       10 UNK        -0.4914 
     64 N          33.6287   -2.1981   -8.0846 N.am      11 UNK        -0.4285 
     65 CA         35.0049   -1.7143   -7.9204 C.3       11 UNK         0.1007 
     66 C          35.4397   -0.7353   -9.0487 C.2       11 UNK         0.5703 
     67 N          36.7283   -0.4337   -9.1424 N.am      11 UNK        -0.7361 
     68 O          34.6324   -0.2444   -9.8369 O.2       11 UNK        -0.4986 
     69 C69        35.2538   -1.1620   -6.4928 C.3       12 UNK        -0.0947 
     70 S70        34.2187    0.2682   -6.0283 S.3       12 UNK        -0.2240 
     71 C71        34.2413    0.1217   -4.2120 C.3       12 UNK         0.0194 
     72 H72        24.1590   -7.1686   -3.5277 H         1 UNK         0.0906 
     73 H73        23.8759   -7.7307   -1.8792 H         1 UNK         0.0906 
     74 H74        22.9791   -6.3451   -2.5056 H         1 UNK         0.0906 
     75 H75        26.0555   -5.9997   -3.7186 H         1 UNK         0.3140 
     76 H76        27.4280   -4.8940   -1.4123 H         1 UNK         0.1085 
     77 H77        28.2861   -4.8006   -4.3473 H         1 UNK         0.0836 
     78 H78        28.5243   -6.1797   -3.3276 H         1 UNK         0.0836 
     79 H79        29.7702   -3.1439   -4.6571 H         1 UNK         0.0731 
     80 H80        31.3063   -3.9696   -4.5625 H         1 UNK         0.0731 
     81 H81        32.9377   -2.2334   -4.7436 H         1 UNK         0.1312 
     82 H82        32.6011    1.3680   -2.4339 H         1 UNK         0.1406 
     83 H83        29.5557   -1.6349   -2.1854 H         1 UNK         0.1631 
     84 H84        30.9537    1.3176   -0.5348 H         1 UNK         0.0717 
     85 H85        29.6220    0.1921   -0.5465 H         1 UNK         0.0717 
     86 H86        28.0482    0.0131   -2.4818 H         1 UNK         0.0934 
     87 H87        26.9574    1.3495   -2.4040 H         1 UNK         0.0934 
     88 H88        29.0130    1.2337   -4.6644 H         1 UNK         0.0739 
     89 H89        27.1519   -0.8341   -4.3899 H         1 UNK         0.3093 
     90 H90        26.3559   -1.3278   -7.8385 H         1 UNK         0.0818 
     91 H91        27.1704   -3.5876   -7.4514 H         1 UNK         0.0819 
     92 H92        28.5525   -2.5030   -7.4771 H         1 UNK         0.0819 
     93 H93        27.9461   -3.1131   -5.9447 H         1 UNK         0.0819 
     94 H94        25.6583   -2.6138   -5.3283 H         1 UNK         0.3041 
     95 H95        22.6785   -0.7039   -4.8336 H         1 UNK         0.0784 
     96 H96        22.0774   -2.5505   -6.4122 H         1 UNK         0.0793 
     97 H97        23.1486   -3.6512   -5.5565 H         1 UNK         0.0793 
     98 H98        21.7251   -2.9918   -4.7503 H         1 UNK         0.0793 
     99 H99        23.8780   -2.8039   -3.3166 H         1 UNK         0.3024 
    100 H100       26.0670   -0.8079   -1.3564 H         1 UNK         0.1171 
    101 H101       24.7164   -1.6908    0.5142 H         1 UNK         0.0786 
    102 H102       23.8233   -0.4270   -0.3143 H         1 UNK         0.0786 
    103 H103       23.4042   -2.1139   -0.5851 H         1 UNK         0.0786 
    104 H104       25.4130   -3.5390   -1.0792 H         1 UNK         0.2977 
    105 H105       25.4375    1.4982   -4.3861 H         1 UNK         0.3127 
    106 H106       25.2230    4.2854   -4.7720 H         1 UNK         0.0770 
    107 H107       23.2101    2.0547   -5.3904 H         1 UNK         0.0814 
    108 H108       22.8210    3.7639   -5.2432 H         1 UNK         0.0814 
    109 H109       23.4029    2.8755   -3.8432 H         1 UNK         0.0814 
    110 H110       25.2983    1.6453   -7.1764 H         1 UNK         0.2983 
    111 H111       24.8112    3.3520   -9.4637 H         1 UNK         0.0947 
    112 H112       25.9642    0.5167   -9.2911 H         1 UNK         0.0806 
    113 H113       25.3384    1.2893  -10.7390 H         1 UNK         0.0806 
    114 H114       24.2492    0.9086   -9.4142 H         1 UNK         0.0806 
    115 H115       27.5961    2.8206   -7.5508 H         1 UNK         0.3000 
    116 H116       29.7603    3.2117   -7.6448 H         1 UNK         0.0850 
    117 H117       29.1697    5.5220   -8.4091 H         1 UNK         0.0810 
    118 H118       29.2613    4.9959  -10.0899 H         1 UNK         0.0810 
    119 H119       30.7000    4.9843   -9.0830 H         1 UNK         0.0810 
    120 H120       29.0086    0.8411   -8.4691 H         1 UNK         0.3040 
    121 H121       30.6391    0.0963  -10.8655 H         1 UNK         0.0766 
    122 H122       28.9203   -1.6489  -11.2622 H         1 UNK         0.0812 
    123 H123       28.1146   -0.0980  -11.1605 H         1 UNK         0.0812 
    124 H124       28.0644   -1.2013   -9.7905 H         1 UNK         0.0812 
    125 H125       30.7261   -2.5086  -10.6017 H         1 UNK         0.3205 
    126 H126       31.6803   -4.2879   -9.7717 H         1 UNK         0.0754 
    127 H127       31.1158   -3.1893   -6.9707 H         1 UNK         0.0769 
    128 H128       31.6997   -4.8048   -7.3286 H         1 UNK         0.0769 
    129 H129       30.1165   -4.3091   -7.8957 H         1 UNK         0.0769 
    130 H130       32.8925   -1.6156   -7.6953 H         1 UNK         0.2981 
    131 H131       35.6621   -2.5801   -8.0242 H         1 UNK         0.0541 
    132 H132       37.0301    0.2007   -9.8652 H         1 UNK         0.3459 
    133 H133       37.4047   -0.8257   -8.5061 H         1 UNK         0.3459 
    134 H134       35.0831   -1.9659   -5.7757 H         1 UNK         0.0612 
    135 H135       36.3001   -0.8791   -6.3675 H         1 UNK         0.0612 
    136 H136       35.0466   -0.5388   -3.8883 H         1 UNK         0.0624 
    137 H137       34.4798    1.1047   -3.8032 H         1 UNK         0.0624 
@<TRIPOS>BOND
     1    1    2 1    
     2    1   72 1    
     3    1   73 1    
     4    1   74 1    
     5    2    3 2    
     6    2    4 am   BACKBONE|DICT|INTERRES
     7    4    5 1    
     8    4   75 1    
     9    5    6 1    
    10    5   35 1    
    11    5   76 1    
    12    6    7 1    
    13    6   77 1    
    14    6   78 1    
    15    7    8 1    
    16    8    9 1    
    17    8   79 1    
    18    8   80 1    
    19    9   10 ar   
    20    9   14 ar   
    21   10   11 ar   
    22   10   81 1    
    23   11   12 ar   
    24   11   71 1    
    25   12   13 ar   
    26   12   82 1    
    27   13   14 ar   
    28   13   15 1    
    29   14   83 1    
    30   15   16 1    
    31   15   84 1    
    32   15   85 1    
    33   16   17 1    
    34   17   18 1    
    35   17   86 1    
    36   17   87 1    
    37   18   19 1    
    38   18   37 1    
    39   18   88 1    
    40   19   20 am   BACKBONE|DICT|INTERRES
    41   19   89 1    
    42   20   21 2    
    43   20   22 1    
    44   22   23 1    
    45   22   24 1    
    46   22   90 1    
    47   23   91 1    
    48   23   92 1    
    49   23   93 1    
    50   24   25 am   BACKBONE|DICT|INTERRES
    51   24   94 1    
    52   25   26 2    
    53   25   27 1    
    54   27   28 1    
    55   27   29 1    
    56   27   95 1    
    57   28   96 1    
    58   28   97 1    
    59   28   98 1    
    60   29   30 am   BACKBONE|DICT|INTERRES
    61   29   99 1    
    62   30   31 2    
    63   30   32 1    
    64   32   33 1    
    65   32   34 1    
    66   32  100 1    
    67   33  101 1    
    68   33  102 1    
    69   33  103 1    
    70   34   35 am   BACKBONE|DICT|INTERRES
    71   34  104 1    
    72   35   36 2    
    73   37   38 2    
    74   37   39 am   BACKBONE|DICT|INTERRES
    75   39   40 1    
    76   39  105 1    
    77   40   41 1    
    78   40   42 1    
    79   40  106 1    
    80   41  107 1    
    81   41  108 1    
    82   41  109 1    
    83   42   43 2    
    84   42   44 am   BACKBONE|DICT|INTERRES
    85   44   45 1    
    86   44  110 1    
    87   45   46 1    
    88   45   47 1    
    89   45  111 1    
    90   46  112 1    
    91   46  113 1    
    92   46  114 1    
    93   47   48 2    
    94   47   49 am   BACKBONE|DICT|INTERRES
    95   49   50 1    
    96   49  115 1    
    97   50   51 1    
    98   50   52 1    
    99   50  116 1    
   100   51  117 1    
   101   51  118 1    
   102   51  119 1    
   103   52   53 2    
   104   52   54 am   BACKBONE|DICT|INTERRES
   105   54   55 1    
   106   54  120 1    
   107   55   56 1    
   108   55   57 1    
   109   55  121 1    
   110   56  122 1    
   111   56  123 1    
   112   56  124 1    
   113   57   58 2    
   114   57   59 am   BACKBONE|DICT|INTERRES
   115   59   60 1    
   116   59  125 1    
   117   60   61 1    
   118   60   62 1    
   119   60  126 1    
   120   61  127 1    
   121   61  128 1    
   122   61  129 1    
   123   62   63 2    
   124   62   64 am   BACKBONE|DICT|INTERRES
   125   64   65 1    
   126   64  130 1    
   127   65   66 1    
   128   65   69 1    
   129   65  131 1    
   130   66   67 am   BACKBONE|DICT|INTERRES
   131   66   68 2    
   132   67  132 1    
   133   67  133 1    
   134   69   70 1    
   135   69  134 1    
   136   69  135 1    
   137   70   71 1    
   138   71  136 1    
   139   71  137 1    
@<TRIPOS>SUBSTRUCTURE
     1 UNK         1 GROUP             0       ****    0 ROOT    
