@<TRIPOS>MOLECULE
3R137
137   139    1
SMALL
USER_CHARGES


@<TRIPOS>ATOM
      1 CA         27.0900   -7.2254   -6.6649 C.3       0 UNK        -0.2020 
      2 C          26.9838   -6.7971   -5.2088 C.2       0 UNK         0.4855 
      3 O          26.4078   -7.5226   -4.3969 O.2       0 UNK        -0.5197 
      4 N          27.5454   -5.6298   -4.8726 N.am      1 UNK        -0.4892 
      5 CA         27.5002   -5.0263   -3.5346 C.3       1 UNK         0.0835 
      6 C6         28.5618   -3.9069   -3.3696 C.3       12 UNK        -0.0855 
      7 S7         30.2483   -4.4492   -3.8229 S.3       12 UNK        -0.2931 
      8 C8         31.2850   -3.5374   -2.6356 C.3       12 UNK         0.0378 
      9 C9         31.1459   -2.0315   -2.8039 C.ar      12 UNK        -0.0802 
     10 C10        31.8127   -1.3678   -3.8367 C.ar      12 UNK        -0.0944 
     11 C11        31.6770    0.0155   -3.9998 C.ar      12 UNK        -0.0787 
     12 C12        30.8595    0.7359   -3.1223 C.ar      12 UNK        -0.0862 
     13 C13        30.1886    0.0795   -2.0855 C.ar      12 UNK        -0.0733 
     14 C14        30.3454   -1.2995   -1.9254 C.ar      12 UNK        -0.0832 
     15 C15        29.2856    0.8393   -1.1290 C.3       12 UNK         0.0240 
     16 S16        27.5376    0.4362   -1.4380 S.3       12 UNK        -0.2522 
     17 C17        26.9937    1.8276   -2.4785 C.3       12 UNK        -0.0967 
     18 CA         27.1639    1.5973   -4.0011 C.3       5 UNK         0.0660 
     19 N          26.4896    0.3796   -4.4749 N.am      5 UNK        -0.4015 
     20 C          26.4644   -0.0461   -5.7486 C.2       4 UNK         0.4946 
     21 O          27.1104    0.4852   -6.6512 O.2       4 UNK        -0.5353 
     22 CA         25.5165   -1.1992   -6.1232 C.3       4 UNK         0.0277 
     23 CB         26.3119   -2.4352   -6.5703 C.3       4 UNK        -0.1981 
     24 N          24.5398   -1.5633   -5.0889 N.am      4 UNK        -0.4209 
     25 C          23.5623   -0.7539   -4.6456 C.2       3 UNK         0.4942 
     26 O          23.4258    0.4097   -5.0298 O.2       3 UNK        -0.5208 
     27 CA         22.5813   -1.3053   -3.5931 C.3       3 UNK         0.0250 
     28 CB         21.2352   -1.6524   -4.2493 C.3       3 UNK        -0.1990 
     29 N          23.0744   -2.4776   -2.8656 N.am      3 UNK        -0.4232 
     30 C          24.0896   -2.4704   -1.9909 C.2       2 UNK         0.4993 
     31 O          24.7111   -1.4549   -1.6815 O.2       2 UNK        -0.5286 
     32 CA         24.5076   -3.8230   -1.3779 C.3       2 UNK         0.0209 
     33 CB         23.4256   -4.9223   -1.4905 C.3       2 UNK        -0.1931 
     34 N          25.7844   -4.3098   -1.9221 N.am      2 UNK        -0.4546 
     35 C          26.0840   -4.4932   -3.2175 C.2       1 UNK         0.5154 
     36 O          25.3021   -4.2365   -4.1387 O.2       1 UNK        -0.5181 
     37 C          26.6996    2.8704   -4.7450 C.2       5 UNK         0.5014 
     38 O          27.4970    3.7952   -4.9024 O.2       5 UNK        -0.5248 
     39 N          25.4306    2.8986   -5.1864 N.am      6 UNK        -0.4434 
     40 CA         24.8502    3.9934   -5.9676 C.3       6 UNK         0.0363 
     41 CB         23.3230    3.8272   -6.0156 C.3       6 UNK        -0.1936 
     42 C          25.4258    4.0927   -7.3921 C.2       6 UNK         0.5081 
     43 O          25.5100    5.1973   -7.9297 O.2       6 UNK        -0.5248 
     44 N          25.8082    2.9487   -7.9757 N.am      7 UNK        -0.4718 
     45 CA         26.4630    2.8669   -9.2825 C.3       7 UNK         0.0273 
     46 CB         26.0786    1.5419   -9.9631 C.3       7 UNK        -0.1935 
     47 C          27.9890    2.9809   -9.1512 C.2       7 UNK         0.5018 
     48 O          28.6210    3.6249   -9.9881 O.2       7 UNK        -0.5186 
     49 N          28.5427    2.3311   -8.1155 N.am      8 UNK        -0.4240 
     50 CA         29.9626    2.2124   -7.7639 C.3       8 UNK         0.0235 
     51 CB         30.5770    3.5891   -7.4373 C.3       8 UNK        -0.2000 
     52 C          30.8016    1.4177   -8.7845 C.2       8 UNK         0.4941 
     53 O          32.0299    1.4594   -8.7161 O.2       8 UNK        -0.5273 
     54 N          30.1427    0.6692   -9.6833 N.am      9 UNK        -0.4262 
     55 CA         30.7593   -0.1208  -10.7566 C.3       9 UNK         0.0264 
     56 CB         29.6561   -0.7468  -11.6247 C.3       9 UNK        -0.1955 
     57 C          31.7335   -1.2014  -10.2562 C.2       9 UNK         0.5031 
     58 O          32.7369   -1.4688  -10.9187 O.2       9 UNK        -0.5390 
     59 N          31.4523   -1.7576   -9.0697 N.am      10 UNK        -0.4204 
     60 CA         32.3066   -2.7074   -8.3517 C.3       10 UNK         0.0237 
     61 CB         31.5308   -3.2502   -7.1400 C.3       10 UNK        -0.1985 
     62 C          33.6709   -2.1314   -7.9173 C.2       10 UNK         0.4970 
     63 O          34.5889   -2.9120   -7.6632 O.2       10 UNK        -0.4914 
     64 N          33.7861   -0.7986   -7.8512 N.am      11 UNK        -0.4285 
     65 CA         35.0262   -0.0631   -7.5679 C.3       11 UNK         0.1007 
     66 C          35.7776    0.3750   -8.8599 C.2       11 UNK         0.5703 
     67 N          35.3081    0.0492  -10.0604 N.am      11 UNK        -0.7361 
     68 O          36.8282    1.0067   -8.7738 O.2       11 UNK        -0.4986 
     69 C69        34.7653    1.1356   -6.6135 C.3       12 UNK        -0.0947 
     70 S70        34.2045    0.5992   -4.9632 S.3       12 UNK        -0.2240 
     71 C71        32.3969    0.7181   -5.1404 C.3       12 UNK         0.0194 
     72 H72        27.6077   -8.1814   -6.7385 H         1 UNK         0.0906 
     73 H73        26.0952   -7.3420   -7.0941 H         1 UNK         0.0906 
     74 H74        27.6349   -6.4975   -7.2659 H         1 UNK         0.0906 
     75 H75        28.0150   -5.0807   -5.5771 H         1 UNK         0.3140 
     76 H76        27.7231   -5.8152   -2.8124 H         1 UNK         0.1085 
     77 H77        28.3178   -3.0307   -3.9717 H         1 UNK         0.0836 
     78 H78        28.5710   -3.5636   -2.3341 H         1 UNK         0.0836 
     79 H79        32.3270   -3.8250   -2.7830 H         1 UNK         0.0731 
     80 H80        31.0262   -3.8411   -1.6200 H         1 UNK         0.0731 
     81 H81        32.4409   -1.9288   -4.5151 H         1 UNK         0.1312 
     82 H82        30.7415    1.8036   -3.2480 H         1 UNK         0.1406 
     83 H83        29.8245   -1.8033   -1.1224 H         1 UNK         0.1631 
     84 H84        29.4553    1.9148   -1.1942 H         1 UNK         0.0717 
     85 H85        29.5332    0.5561   -0.1049 H         1 UNK         0.0717 
     86 H86        25.9427    2.0077   -2.2421 H         1 UNK         0.0934 
     87 H87        27.5225    2.7294   -2.1629 H         1 UNK         0.0934 
     88 H88        28.2269    1.4718   -4.2150 H         1 UNK         0.0739 
     89 H89        25.9488   -0.1238   -3.7849 H         1 UNK         0.3093 
     90 H90        24.9436   -0.8526   -6.9859 H         1 UNK         0.0818 
     91 H91        26.9581   -2.1990   -7.4169 H         1 UNK         0.0819 
     92 H92        26.9492   -2.8119   -5.7737 H         1 UNK         0.0819 
     93 H93        25.6513   -3.2441   -6.8829 H         1 UNK         0.0819 
     94 H94        24.6126   -2.5052   -4.7109 H         1 UNK         0.3041 
     95 H95        22.4107   -0.5083   -2.8662 H         1 UNK         0.0784 
     96 H96        20.8222   -0.7894   -4.7739 H         1 UNK         0.0793 
     97 H97        21.3367   -2.4582   -4.9776 H         1 UNK         0.0793 
     98 H98        20.4983   -1.9598   -3.5069 H         1 UNK         0.0793 
     99 H99        22.6470   -3.3649   -3.0890 H         1 UNK         0.3024 
    100 H100       24.6700   -3.6299   -0.3159 H         1 UNK         0.1171 
    101 H101       23.7163   -5.8106   -0.9293 H         1 UNK         0.0786 
    102 H102       22.4739   -4.5848   -1.0774 H         1 UNK         0.0786 
    103 H103       23.2519   -5.2330   -2.5214 H         1 UNK         0.0786 
    104 H104       26.4978   -4.5055   -1.2334 H         1 UNK         0.2977 
    105 H105       24.8324    2.0968   -5.0169 H         1 UNK         0.3127 
    106 H106       25.0757    4.9313   -5.4552 H         1 UNK         0.0770 
    107 H107       23.0335    2.8942   -6.5013 H         1 UNK         0.0814 
    108 H108       22.8586    4.6429   -6.5715 H         1 UNK         0.0814 
    109 H109       22.8914    3.8308   -5.0146 H         1 UNK         0.0814 
    110 H110       25.7467    2.0914   -7.4430 H         1 UNK         0.2983 
    111 H111       26.1189    3.6864   -9.9179 H         1 UNK         0.0947 
    112 H112       26.5537    1.4532  -10.9412 H         1 UNK         0.0806 
    113 H113       25.0019    1.4787  -10.1214 H         1 UNK         0.0806 
    114 H114       26.3797    0.6755   -9.3728 H         1 UNK         0.0806 
    115 H115       27.9220    1.7720   -7.5290 H         1 UNK         0.3000 
    116 H116       29.9818    1.6229   -6.8463 H         1 UNK         0.0850 
    117 H117       31.5870    3.4850   -7.0392 H         1 UNK         0.0810 
    118 H118       29.9867    4.1159   -6.6870 H         1 UNK         0.0810 
    119 H119       30.6428    4.2239   -8.3211 H         1 UNK         0.0810 
    120 H120       29.1342    0.6884   -9.6568 H         1 UNK         0.3040 
    121 H121       31.3340    0.5695  -11.3777 H         1 UNK         0.0766 
    122 H122       29.0180    0.0178  -12.0686 H         1 UNK         0.0812 
    123 H123       29.0217   -1.4226  -11.0498 H         1 UNK         0.0812 
    124 H124       30.0859   -1.3227  -12.4457 H         1 UNK         0.0812 
    125 H125       30.6030   -1.4712   -8.6057 H         1 UNK         0.3205 
    126 H126       32.5150   -3.5411   -9.0255 H         1 UNK         0.0754 
    127 H127       32.1468   -3.9262   -6.5448 H         1 UNK         0.0769 
    128 H128       30.6505   -3.8121   -7.4525 H         1 UNK         0.0769 
    129 H129       31.1959   -2.4484   -6.4819 H         1 UNK         0.0769 
    130 H130       33.0056   -0.2141   -8.1298 H         1 UNK         0.2981 
    131 H131       35.7205   -0.7313   -7.0554 H         1 UNK         0.0541 
    132 H132       35.8190    0.3386  -10.8790 H         1 UNK         0.3459 
    133 H133       34.4531   -0.4828  -10.1653 H         1 UNK         0.3459 
    134 H134       34.0436    1.8322   -7.0421 H         1 UNK         0.0612 
    135 H135       35.6814    1.7086   -6.4602 H         1 UNK         0.0612 
    136 H136       32.1152    1.7705   -5.1949 H         1 UNK         0.0624 
    137 H137       32.0820    0.2624   -6.0781 H         1 UNK         0.0624 
@<TRIPOS>BOND
     1    1    2 1    
     2    1   72 1    
     3    1   73 1    
     4    1   74 1    
     5    2    3 2    
     6    2    4 am   BACKBONE|DICT|INTERRES
     7    4    5 1    
     8    4   75 1    
     9    5    6 1    
    10    5   35 1    
    11    5   76 1    
    12    6    7 1    
    13    6   77 1    
    14    6   78 1    
    15    7    8 1    
    16    8    9 1    
    17    8   79 1    
    18    8   80 1    
    19    9   10 ar   
    20    9   14 ar   
    21   10   11 ar   
    22   10   81 1    
    23   11   12 ar   
    24   11   71 1    
    25   12   13 ar   
    26   12   82 1    
    27   13   14 ar   
    28   13   15 1    
    29   14   83 1    
    30   15   16 1    
    31   15   84 1    
    32   15   85 1    
    33   16   17 1    
    34   17   18 1    
    35   17   86 1    
    36   17   87 1    
    37   18   19 1    
    38   18   37 1    
    39   18   88 1    
    40   19   20 am   BACKBONE|DICT|INTERRES
    41   19   89 1    
    42   20   21 2    
    43   20   22 1    
    44   22   23 1    
    45   22   24 1    
    46   22   90 1    
    47   23   91 1    
    48   23   92 1    
    49   23   93 1    
    50   24   25 am   BACKBONE|DICT|INTERRES
    51   24   94 1    
    52   25   26 2    
    53   25   27 1    
    54   27   28 1    
    55   27   29 1    
    56   27   95 1    
    57   28   96 1    
    58   28   97 1    
    59   28   98 1    
    60   29   30 am   BACKBONE|DICT|INTERRES
    61   29   99 1    
    62   30   31 2    
    63   30   32 1    
    64   32   33 1    
    65   32   34 1    
    66   32  100 1    
    67   33  101 1    
    68   33  102 1    
    69   33  103 1    
    70   34   35 am   BACKBONE|DICT|INTERRES
    71   34  104 1    
    72   35   36 2    
    73   37   38 2    
    74   37   39 am   BACKBONE|DICT|INTERRES
    75   39   40 1    
    76   39  105 1    
    77   40   41 1    
    78   40   42 1    
    79   40  106 1    
    80   41  107 1    
    81   41  108 1    
    82   41  109 1    
    83   42   43 2    
    84   42   44 am   BACKBONE|DICT|INTERRES
    85   44   45 1    
    86   44  110 1    
    87   45   46 1    
    88   45   47 1    
    89   45  111 1    
    90   46  112 1    
    91   46  113 1    
    92   46  114 1    
    93   47   48 2    
    94   47   49 am   BACKBONE|DICT|INTERRES
    95   49   50 1    
    96   49  115 1    
    97   50   51 1    
    98   50   52 1    
    99   50  116 1    
   100   51  117 1    
   101   51  118 1    
   102   51  119 1    
   103   52   53 2    
   104   52   54 am   BACKBONE|DICT|INTERRES
   105   54   55 1    
   106   54  120 1    
   107   55   56 1    
   108   55   57 1    
   109   55  121 1    
   110   56  122 1    
   111   56  123 1    
   112   56  124 1    
   113   57   58 2    
   114   57   59 am   BACKBONE|DICT|INTERRES
   115   59   60 1    
   116   59  125 1    
   117   60   61 1    
   118   60   62 1    
   119   60  126 1    
   120   61  127 1    
   121   61  128 1    
   122   61  129 1    
   123   62   63 2    
   124   62   64 am   BACKBONE|DICT|INTERRES
   125   64   65 1    
   126   64  130 1    
   127   65   66 1    
   128   65   69 1    
   129   65  131 1    
   130   66   67 am   BACKBONE|DICT|INTERRES
   131   66   68 2    
   132   67  132 1    
   133   67  133 1    
   134   69   70 1    
   135   69  134 1    
   136   69  135 1    
   137   70   71 1    
   138   71  136 1    
   139   71  137 1    
@<TRIPOS>SUBSTRUCTURE
     1 UNK         1 GROUP             0       ****    0 ROOT    
