@<TRIPOS>MOLECULE
3R137
137   139    1
SMALL
USER_CHARGES


@<TRIPOS>ATOM
      1 CA         31.1799    0.6328   -1.1390 C.3       0 UNK        -0.2020 
      2 C          30.2295   -0.4711   -1.5773 C.2       0 UNK         0.4855 
      3 O          29.7920   -0.4842   -2.7265 O.2       0 UNK        -0.5197 
      4 N          29.9110   -1.4031   -0.6712 N.am      1 UNK        -0.4892 
      5 CA         28.9597   -2.4906   -0.9143 C.3       1 UNK         0.0835 
      6 C6         29.1612   -3.6399    0.1050 C.3       12 UNK        -0.0855 
      7 S7         28.4839   -5.2295   -0.4835 S.3       12 UNK        -0.2931 
      8 C8         29.9521   -6.0037   -1.2318 C.3       12 UNK         0.0378 
      9 C9         30.3806   -5.2955   -2.5098 C.ar      12 UNK        -0.0802 
     10 C10        31.5041   -4.4629   -2.5164 C.ar      12 UNK        -0.0944 
     11 C11        31.9283   -3.8353   -3.6925 C.ar      12 UNK        -0.0787 
     12 C12        31.2061   -4.0584   -4.8738 C.ar      12 UNK        -0.0862 
     13 C13        30.0721   -4.8792   -4.8807 C.ar      12 UNK        -0.0733 
     14 C14        29.6648   -5.4935   -3.6935 C.ar      12 UNK        -0.0832 
     15 C15        29.3272   -5.1648   -6.1807 C.3       12 UNK         0.0240 
     16 S16        28.8910   -3.6593   -7.1083 S.3       12 UNK        -0.2522 
     17 C17        27.4513   -3.0294   -6.1810 C.3       12 UNK        -0.0967 
     18 CA         26.6210   -2.0466   -7.0480 C.3       5 UNK         0.0660 
     19 N          25.2632   -1.8494   -6.5445 N.am      5 UNK        -0.4015 
     20 C          24.2098   -1.5537   -7.3221 C.2       4 UNK         0.4946 
     21 O          24.2417   -1.5624   -8.5533 O.2       4 UNK        -0.5353 
     22 CA         22.8917   -1.1712   -6.6221 C.3       4 UNK         0.0277 
     23 CB         21.9743   -2.3990   -6.4977 C.3       4 UNK        -0.1981 
     24 N          23.0771   -0.5720   -5.2987 N.am      4 UNK        -0.4209 
     25 C          23.6944    0.5946   -5.0600 C.2       3 UNK         0.4942 
     26 O          24.1360    1.3324   -5.9399 O.2       3 UNK        -0.5208 
     27 CA         23.9128    0.9642   -3.5820 C.3       3 UNK         0.0250 
     28 CB         22.7081    1.7492   -3.0393 C.3       3 UNK        -0.1990 
     29 N          24.1791   -0.1925   -2.7157 N.am      3 UNK        -0.4232 
     30 C          25.1806   -1.0669   -2.8893 C.2       2 UNK         0.4993 
     31 O          25.9789   -1.0201   -3.8300 O.2       2 UNK        -0.5286 
     32 CA         25.2508   -2.2385   -1.9009 C.3       2 UNK         0.0209 
     33 CB         24.4663   -3.4414   -2.4510 C.3       2 UNK        -0.1931 
     34 N          26.6382   -2.6408   -1.6792 N.am      2 UNK        -0.4546 
     35 C          27.5091   -1.9637   -0.9220 C.2       1 UNK         0.5154 
     36 O          27.2000   -0.9869   -0.2320 O.2       1 UNK        -0.5181 
     37 C          27.3086   -0.6785   -7.1917 C.2       5 UNK         0.5014 
     38 O          27.7656   -0.3489   -8.2846 O.2       5 UNK        -0.5248 
     39 N          27.3397    0.1032   -6.1004 N.am      6 UNK        -0.4434 
     40 CA         28.0545    1.3810   -5.9880 C.3       6 UNK         0.0363 
     41 CB         27.8491    1.9577   -4.5792 C.3       6 UNK        -0.1936 
     42 C          27.6842    2.4341   -7.0489 C.2       6 UNK         0.5081 
     43 O          28.5361    3.2397   -7.4227 O.2       6 UNK        -0.5248 
     44 N          26.4348    2.4058   -7.5296 N.am      7 UNK        -0.4718 
     45 CA         25.9397    3.2617   -8.6085 C.3       7 UNK         0.0273 
     46 CB         24.4035    3.1904   -8.6304 C.3       7 UNK        -0.1935 
     47 C          26.5073    2.9308  -10.0042 C.2       7 UNK         0.5018 
     48 O          26.3597    3.7617  -10.9023 O.2       7 UNK        -0.5186 
     49 N          27.1083    1.7461  -10.1925 N.am      8 UNK        -0.4240 
     50 CA         27.5541    1.2501  -11.4978 C.3       8 UNK         0.0235 
     51 CB         26.3848    0.5244  -12.1960 C.3       8 UNK        -0.2000 
     52 C          28.8180    0.3792  -11.3894 C.2       8 UNK         0.4941 
     53 O          28.9575   -0.5851  -12.1453 O.2       8 UNK        -0.5273 
     54 N          29.7285    0.7283  -10.4736 N.am      9 UNK        -0.4262 
     55 CA         30.9973    0.0387  -10.2486 C.3       9 UNK         0.0264 
     56 CB         30.7819   -1.1782   -9.3266 C.3       9 UNK        -0.1955 
     57 C          31.9945    1.0165   -9.6234 C.2       9 UNK         0.5031 
     58 O          31.5872    2.0507   -9.0872 O.2       9 UNK        -0.5390 
     59 N          33.2816    0.6416   -9.6468 N.am      10 UNK        -0.4204 
     60 CA         34.3911    1.3784   -9.0242 C.3       10 UNK         0.0237 
     61 CB         35.7194    0.6943   -9.3876 C.3       10 UNK        -0.1985 
     62 C          34.2653    1.5333   -7.4950 C.2       10 UNK         0.4970 
     63 O          34.8608    2.4526   -6.9319 O.2       10 UNK        -0.4914 
     64 N          33.4801    0.6519   -6.8631 N.am      11 UNK        -0.4285 
     65 CA         33.0545    0.7387   -5.4598 C.3       11 UNK         0.1007 
     66 C          32.1060    1.9370   -5.1519 C.2       11 UNK         0.5703 
     67 N          31.5036    2.5893   -6.1406 N.am      11 UNK        -0.7361 
     68 O          31.9322    2.2950   -3.9905 O.2       11 UNK        -0.4986 
     69 C69        32.4305   -0.5991   -4.9819 C.3       12 UNK        -0.0947 
     70 S70        33.5855   -2.0035   -5.1330 S.3       12 UNK        -0.2240 
     71 C71        33.1952   -2.9749   -3.6339 C.3       12 UNK         0.0194 
     72 H72        32.1304    0.5397   -1.6628 H         1 UNK         0.0906 
     73 H73        30.7564    1.6076   -1.3798 H         1 UNK         0.0906 
     74 H74        31.3760    0.6039   -0.0675 H         1 UNK         0.0906 
     75 H75        30.2619   -1.3235    0.2726 H         1 UNK         0.3140 
     76 H76        29.1701   -2.8722   -1.9159 H         1 UNK         0.1085 
     77 H77        30.2238   -3.7812    0.3097 H         1 UNK         0.0836 
     78 H78        28.7085   -3.3952    1.0681 H         1 UNK         0.0836 
     79 H79        30.7661   -6.0267   -0.5053 H         1 UNK         0.0731 
     80 H80        29.7218   -7.0458   -1.4587 H         1 UNK         0.0731 
     81 H81        32.0609   -4.3113   -1.6015 H         1 UNK         0.1312 
     82 H82        31.5229   -3.6092   -5.8036 H         1 UNK         0.1406 
     83 H83        28.8004   -6.1442   -3.6898 H         1 UNK         0.1631 
     84 H84        28.4238   -5.7494   -5.9999 H         1 UNK         0.0717 
     85 H85        29.9679   -5.7822   -6.8114 H         1 UNK         0.0717 
     86 H86        26.8319   -3.8817   -5.8977 H         1 UNK         0.0934 
     87 H87        27.7881   -2.5745   -5.2467 H         1 UNK         0.0934 
     88 H88        26.5462   -2.4798   -8.0486 H         1 UNK         0.0739 
     89 H89        25.1774   -1.7475   -5.5398 H         1 UNK         0.3093 
     90 H90        22.3930   -0.4314   -7.2524 H         1 UNK         0.0818 
     91 H91        21.0013   -2.1286   -6.0868 H         1 UNK         0.0819 
     92 H92        21.7958   -2.8527   -7.4739 H         1 UNK         0.0819 
     93 H93        22.4098   -3.1668   -5.8567 H         1 UNK         0.0819 
     94 H94        22.7422   -1.1025   -4.5079 H         1 UNK         0.3041 
     95 H95        24.7882    1.6132   -3.5339 H         1 UNK         0.0784 
     96 H96        22.5036    2.6249   -3.6574 H         1 UNK         0.0793 
     97 H97        21.8017    1.1425   -3.0237 H         1 UNK         0.0793 
     98 H98        22.8910    2.1076   -2.0259 H         1 UNK         0.0793 
     99 H99        23.5580   -0.3140   -1.9281 H         1 UNK         0.3024 
    100 H100       24.8155   -1.9326   -0.9464 H         1 UNK         0.1171 
    101 H101       23.4146   -3.1915   -2.5974 H         1 UNK         0.0786 
    102 H102       24.5027   -4.2859   -1.7621 H         1 UNK         0.0786 
    103 H103       24.8591   -3.7769   -3.4121 H         1 UNK         0.0786 
    104 H104       26.9702   -3.4336   -2.2091 H         1 UNK         0.2977 
    105 H105       26.9121   -0.2483   -5.2452 H         1 UNK         0.3127 
    106 H106       29.1140    1.1514   -6.1130 H         1 UNK         0.0770 
    107 H107       26.8192    2.2781   -4.4251 H         1 UNK         0.0814 
    108 H108       28.4896    2.8261   -4.4192 H         1 UNK         0.0814 
    109 H109       28.0937    1.2288   -3.8069 H         1 UNK         0.0814 
    110 H110       25.7692    1.7595   -7.1164 H         1 UNK         0.2983 
    111 H111       26.2298    4.2902   -8.3825 H         1 UNK         0.0947 
    112 H112       23.9892    3.8284   -9.4125 H         1 UNK         0.0806 
    113 H113       23.9781    3.5243   -7.6837 H         1 UNK         0.0806 
    114 H114       24.0517    2.1741   -8.8150 H         1 UNK         0.0806 
    115 H115       27.2365    1.1087   -9.4074 H         1 UNK         0.3000 
    116 H116       27.8456    2.0969  -12.1228 H         1 UNK         0.0850 
    117 H117       26.6678    0.1837  -13.1928 H         1 UNK         0.0810 
    118 H118       25.5228    1.1809  -12.3162 H         1 UNK         0.0810 
    119 H119       26.0637   -0.3494  -11.6274 H         1 UNK         0.0810 
    120 H120       29.5897    1.5526   -9.9005 H         1 UNK         0.3040 
    121 H121       31.4010   -0.2927  -11.2079 H         1 UNK         0.0766 
    122 H122       31.7009   -1.7506   -9.1975 H         1 UNK         0.0812 
    123 H123       30.0346   -1.8597   -9.7336 H         1 UNK         0.0812 
    124 H124       30.4428   -0.8753   -8.3348 H         1 UNK         0.0812 
    125 H125       33.5232   -0.2243  -10.1082 H         1 UNK         0.3205 
    126 H126       34.3953    2.3847   -9.4485 H         1 UNK         0.0754 
    127 H127       36.5666    1.2370   -8.9652 H         1 UNK         0.0769 
    128 H128       35.8671    0.6594  -10.4672 H         1 UNK         0.0769 
    129 H129       35.7651   -0.3272   -9.0073 H         1 UNK         0.0769 
    130 H130       33.0546   -0.0840   -7.4039 H         1 UNK         0.2981 
    131 H131       33.9537    0.9126   -4.8656 H         1 UNK         0.0541 
    132 H132       30.8940    3.3603   -5.9220 H         1 UNK         0.3459 
    133 H133       31.6334    2.3240   -7.1111 H         1 UNK         0.3459 
    134 H134       31.5225   -0.8294   -5.5427 H         1 UNK         0.0612 
    135 H135       32.1316   -0.5149   -3.9378 H         1 UNK         0.0612 
    136 H136       34.0402   -3.6377   -3.4432 H         1 UNK         0.0624 
    137 H137       33.1395   -2.2998   -2.7784 H         1 UNK         0.0624 
@<TRIPOS>BOND
     1    1    2 1    
     2    1   72 1    
     3    1   73 1    
     4    1   74 1    
     5    2    3 2    
     6    2    4 am   BACKBONE|DICT|INTERRES
     7    4    5 1    
     8    4   75 1    
     9    5    6 1    
    10    5   35 1    
    11    5   76 1    
    12    6    7 1    
    13    6   77 1    
    14    6   78 1    
    15    7    8 1    
    16    8    9 1    
    17    8   79 1    
    18    8   80 1    
    19    9   10 ar   
    20    9   14 ar   
    21   10   11 ar   
    22   10   81 1    
    23   11   12 ar   
    24   11   71 1    
    25   12   13 ar   
    26   12   82 1    
    27   13   14 ar   
    28   13   15 1    
    29   14   83 1    
    30   15   16 1    
    31   15   84 1    
    32   15   85 1    
    33   16   17 1    
    34   17   18 1    
    35   17   86 1    
    36   17   87 1    
    37   18   19 1    
    38   18   37 1    
    39   18   88 1    
    40   19   20 am   BACKBONE|DICT|INTERRES
    41   19   89 1    
    42   20   21 2    
    43   20   22 1    
    44   22   23 1    
    45   22   24 1    
    46   22   90 1    
    47   23   91 1    
    48   23   92 1    
    49   23   93 1    
    50   24   25 am   BACKBONE|DICT|INTERRES
    51   24   94 1    
    52   25   26 2    
    53   25   27 1    
    54   27   28 1    
    55   27   29 1    
    56   27   95 1    
    57   28   96 1    
    58   28   97 1    
    59   28   98 1    
    60   29   30 am   BACKBONE|DICT|INTERRES
    61   29   99 1    
    62   30   31 2    
    63   30   32 1    
    64   32   33 1    
    65   32   34 1    
    66   32  100 1    
    67   33  101 1    
    68   33  102 1    
    69   33  103 1    
    70   34   35 am   BACKBONE|DICT|INTERRES
    71   34  104 1    
    72   35   36 2    
    73   37   38 2    
    74   37   39 am   BACKBONE|DICT|INTERRES
    75   39   40 1    
    76   39  105 1    
    77   40   41 1    
    78   40   42 1    
    79   40  106 1    
    80   41  107 1    
    81   41  108 1    
    82   41  109 1    
    83   42   43 2    
    84   42   44 am   BACKBONE|DICT|INTERRES
    85   44   45 1    
    86   44  110 1    
    87   45   46 1    
    88   45   47 1    
    89   45  111 1    
    90   46  112 1    
    91   46  113 1    
    92   46  114 1    
    93   47   48 2    
    94   47   49 am   BACKBONE|DICT|INTERRES
    95   49   50 1    
    96   49  115 1    
    97   50   51 1    
    98   50   52 1    
    99   50  116 1    
   100   51  117 1    
   101   51  118 1    
   102   51  119 1    
   103   52   53 2    
   104   52   54 am   BACKBONE|DICT|INTERRES
   105   54   55 1    
   106   54  120 1    
   107   55   56 1    
   108   55   57 1    
   109   55  121 1    
   110   56  122 1    
   111   56  123 1    
   112   56  124 1    
   113   57   58 2    
   114   57   59 am   BACKBONE|DICT|INTERRES
   115   59   60 1    
   116   59  125 1    
   117   60   61 1    
   118   60   62 1    
   119   60  126 1    
   120   61  127 1    
   121   61  128 1    
   122   61  129 1    
   123   62   63 2    
   124   62   64 am   BACKBONE|DICT|INTERRES
   125   64   65 1    
   126   64  130 1    
   127   65   66 1    
   128   65   69 1    
   129   65  131 1    
   130   66   67 am   BACKBONE|DICT|INTERRES
   131   66   68 2    
   132   67  132 1    
   133   67  133 1    
   134   69   70 1    
   135   69  134 1    
   136   69  135 1    
   137   70   71 1    
   138   71  136 1    
   139   71  137 1    
@<TRIPOS>SUBSTRUCTURE
     1 UNK         1 GROUP             0       ****    0 ROOT    
