@<TRIPOS>MOLECULE
3R137
137   139    1
SMALL
USER_CHARGES


@<TRIPOS>ATOM
      1 CA         26.7693   -5.7349   -3.9251 C.3       0 UNK        -0.2020 
      2 C          25.5980   -5.7500   -2.9466 C.2       0 UNK         0.4855 
      3 O          24.5399   -6.2644   -3.3024 O.2       0 UNK        -0.5197 
      4 N          25.7063   -5.2419   -1.7090 N.am      1 UNK        -0.4892 
      5 CA         26.7940   -4.4865   -1.0736 C.3       1 UNK         0.0835 
      6 C6         28.1906   -5.1645   -1.1438 C.3       12 UNK        -0.0855 
      7 S7         29.2531   -4.6814    0.2636 S.3       12 UNK        -0.2931 
      8 C8         30.8948   -4.4769   -0.5139 C.3       12 UNK         0.0378 
      9 C9         30.8825   -3.4832   -1.6686 C.ar      12 UNK        -0.0802 
     10 C10        31.3141   -3.8768   -2.9390 C.ar      12 UNK        -0.0944 
     11 C11        31.2352   -3.0025   -4.0269 C.ar      12 UNK        -0.0787 
     12 C12        30.7095   -1.7192   -3.8244 C.ar      12 UNK        -0.0862 
     13 C13        30.2880   -1.3050   -2.5560 C.ar      12 UNK        -0.0733 
     14 C14        30.3965   -2.1874   -1.4796 C.ar      12 UNK        -0.0832 
     15 C15        29.6021    0.0388   -2.3461 C.3       12 UNK         0.0240 
     16 S16        30.2887    1.3951   -3.3485 S.3       12 UNK        -0.2522 
     17 C17        28.7641    2.3022   -3.7695 C.3       12 UNK        -0.0967 
     18 CA         28.2194    1.8922   -5.1591 C.3       5 UNK         0.0660 
     19 N          27.7592    0.5003   -5.2214 N.am      5 UNK        -0.4015 
     20 C          27.6229   -0.1898   -6.3626 C.2       4 UNK         0.4946 
     21 O          27.9389    0.2549   -7.4664 O.2       4 UNK        -0.5353 
     22 CA         26.9782   -1.5846   -6.2744 C.3       4 UNK         0.0277 
     23 CB         28.0303   -2.6810   -6.0621 C.3       4 UNK        -0.1981 
     24 N          25.9528   -1.6738   -5.2317 N.am      4 UNK        -0.4209 
     25 C          24.7538   -1.0791   -5.3277 C.2       3 UNK         0.4942 
     26 O          24.3997   -0.4263   -6.3073 O.2       3 UNK        -0.5208 
     27 CA         23.7951   -1.1872   -4.1289 C.3       3 UNK         0.0250 
     28 CB         22.8858   -2.4162   -4.2861 C.3       3 UNK        -0.1990 
     29 N          24.4601   -1.2441   -2.8270 N.am      3 UNK        -0.4232 
     30 C          25.3405   -0.3538   -2.3481 C.2       2 UNK         0.4993 
     31 O          25.6883    0.6652   -2.9489 O.2       2 UNK        -0.5286 
     32 CA         25.9888   -0.6994   -0.9945 C.3       2 UNK         0.0209 
     33 CB         25.1856   -0.0679    0.1533 C.3       2 UNK        -0.1931 
     34 N          26.1491   -2.1413   -0.7420 N.am      2 UNK        -0.4546 
     35 C          26.7692   -3.0188   -1.5486 C.2       1 UNK         0.5154 
     36 O          27.2379   -2.7126   -2.6459 O.2       1 UNK        -0.5181 
     37 C          27.1079    2.8496   -5.6233 C.2       5 UNK         0.5014 
     38 O          27.4089    3.8069   -6.3360 O.2       5 UNK        -0.5248 
     39 N          25.8464    2.5596   -5.2647 N.am      6 UNK        -0.4434 
     40 CA         24.6651    3.2921   -5.7385 C.3       6 UNK         0.0363 
     41 CB         23.4136    2.8026   -4.9939 C.3       6 UNK        -0.1936 
     42 C          24.4702    3.1910   -7.2642 C.2       6 UNK         0.5081 
     43 O          24.1256    4.1876   -7.8992 O.2       6 UNK        -0.5248 
     44 N          24.7375    2.0050   -7.8287 N.am      7 UNK        -0.4718 
     45 CA         24.7630    1.7400   -9.2713 C.3       7 UNK         0.0273 
     46 CB         24.6610    0.2223   -9.4977 C.3       7 UNK        -0.1935 
     47 C          26.0088    2.3000   -9.9874 C.2       7 UNK         0.5018 
     48 O          26.0290    2.3058  -11.2190 O.2       7 UNK        -0.5186 
     49 N          27.0145    2.7445   -9.2186 N.am      8 UNK        -0.4240 
     50 CA         28.3127    3.2729   -9.6485 C.3       8 UNK         0.0235 
     51 CB         28.1421    4.6126  -10.3968 C.3       8 UNK        -0.2000 
     52 C          29.1529    2.2414  -10.4259 C.2       8 UNK         0.4941 
     53 O          29.7251    2.5703  -11.4681 O.2       8 UNK        -0.5273 
     54 N          29.2172    1.0086   -9.9036 N.am      9 UNK        -0.4262 
     55 CA         30.0736   -0.0635  -10.4146 C.3       9 UNK         0.0264 
     56 CB         29.6424   -1.3932   -9.7755 C.3       9 UNK        -0.1955 
     57 C          31.5612    0.2154  -10.1312 C.2       9 UNK         0.5031 
     58 O          31.8896    0.9372   -9.1844 O.2       9 UNK        -0.5390 
     59 N          32.4430   -0.3909  -10.9369 N.am      10 UNK        -0.4204 
     60 CA         33.9032   -0.2573  -10.8621 C.3       10 UNK         0.0237 
     61 CB         34.5069   -0.6368  -12.2281 C.3       10 UNK        -0.1985 
     62 C          34.5226   -1.0579   -9.6958 C.2       10 UNK         0.4970 
     63 O          35.4015   -1.8937   -9.9149 O.2       10 UNK        -0.4914 
     64 N          34.0431   -0.7919   -8.4776 N.am      11 UNK        -0.4285 
     65 CA         34.4829   -1.4239   -7.2238 C.3       11 UNK         0.1007 
     66 C          35.8249   -0.8710   -6.6619 C.2       11 UNK         0.5703 
     67 N          36.3770    0.2137   -7.1937 N.am      11 UNK        -0.7361 
     68 O          36.3837   -1.4467   -5.7311 O.2       11 UNK        -0.4986 
     69 C69        33.3629   -1.3754   -6.1527 C.3       12 UNK        -0.0947 
     70 S70        31.8577   -2.2472   -6.7026 S.3       12 UNK        -0.2240 
     71 C71        31.6692   -3.5156   -5.4029 C.3       12 UNK         0.0194 
     72 H72        26.4223   -5.9686   -4.9314 H         1 UNK         0.0906 
     73 H73        27.2613   -4.7687   -3.9757 H         1 UNK         0.0906 
     74 H74        27.5049   -6.4889   -3.6481 H         1 UNK         0.0906 
     75 H75        24.8842   -5.3207   -1.1256 H         1 UNK         0.3140 
     76 H76        26.5134   -4.4799   -0.0187 H         1 UNK         0.1085 
     77 H77        28.6894   -4.9520   -2.0892 H         1 UNK         0.0836 
     78 H78        28.0816   -6.2491   -1.0992 H         1 UNK         0.0836 
     79 H79        31.2460   -5.4550   -0.8467 H         1 UNK         0.0731 
     80 H80        31.6045   -4.1351    0.2406 H         1 UNK         0.0731 
     81 H81        31.6875   -4.8806   -3.0903 H         1 UNK         0.1312 
     82 H82        30.5884   -1.0452   -4.6593 H         1 UNK         0.1406 
     83 H83        30.0438   -1.8902   -0.5013 H         1 UNK         0.1631 
     84 H84        29.6326    0.3343   -1.2963 H         1 UNK         0.0717 
     85 H85        28.5544   -0.1054   -2.6022 H         1 UNK         0.0717 
     86 H86        28.0116    2.1690   -2.9898 H         1 UNK         0.0934 
     87 H87        29.0158    3.3649   -3.7612 H         1 UNK         0.0934 
     88 H88        29.0398    2.0008   -5.8731 H         1 UNK         0.0739 
     89 H89        27.4167    0.0951   -4.3617 H         1 UNK         0.3093 
     90 H90        26.4998   -1.7734   -7.2380 H         1 UNK         0.0818 
     91 H91        28.8469   -2.5875   -6.7777 H         1 UNK         0.0819 
     92 H92        27.5976   -3.6717   -6.1979 H         1 UNK         0.0819 
     93 H93        28.4596   -2.6399   -5.0623 H         1 UNK         0.0819 
     94 H94        26.2061   -2.1548   -4.3743 H         1 UNK         0.3041 
     95 H95        23.1664   -0.2956   -4.1295 H         1 UNK         0.0784 
     96 H96        22.3593   -2.3923   -5.2415 H         1 UNK         0.0793 
     97 H97        23.4539   -3.3471   -4.2501 H         1 UNK         0.0793 
     98 H98        22.1283   -2.4538   -3.5030 H         1 UNK         0.0793 
     99 H99        24.2550   -2.0489   -2.2535 H         1 UNK         0.3024 
    100 H100       26.9836   -0.2544   -0.9866 H         1 UNK         0.1171 
    101 H101       25.6869   -0.2040    1.1118 H         1 UNK         0.0786 
    102 H102       25.0683    1.0065    0.0027 H         1 UNK         0.0786 
    103 H103       24.1857   -0.4967    0.2321 H         1 UNK         0.0786 
    104 H104       25.7726   -2.4780    0.1330 H         1 UNK         0.2977 
    105 H105       25.6865    1.7887   -4.6226 H         1 UNK         0.3127 
    106 H106       24.8145    4.3457   -5.4930 H         1 UNK         0.0770 
    107 H107       23.1667    1.7739   -5.2536 H         1 UNK         0.0814 
    108 H108       22.5482    3.4156   -5.2488 H         1 UNK         0.0814 
    109 H109       23.5438    2.8566   -3.9128 H         1 UNK         0.0814 
    110 H110       24.9129    1.2075   -7.2226 H         1 UNK         0.2983 
    111 H111       23.8895    2.2146   -9.7233 H         1 UNK         0.0947 
    112 H112       24.6314   -0.0159  -10.5618 H         1 UNK         0.0806 
    113 H113       23.7551   -0.1863   -9.0496 H         1 UNK         0.0806 
    114 H114       25.5144   -0.3043   -9.0687 H         1 UNK         0.0806 
    115 H115       26.8870    2.6912   -8.2162 H         1 UNK         0.3000 
    116 H116       28.8698    3.4803   -8.7335 H         1 UNK         0.0850 
    117 H117       29.1106    5.0682  -10.6062 H         1 UNK         0.0810 
    118 H118       27.5703    5.3264   -9.8038 H         1 UNK         0.0810 
    119 H119       27.6315    4.4829  -11.3515 H         1 UNK         0.0810 
    120 H120       28.7334    0.8175   -9.0267 H         1 UNK         0.3040 
    121 H121       29.9295   -0.1296  -11.4951 H         1 UNK         0.0766 
    122 H122       28.5930   -1.6095   -9.9765 H         1 UNK         0.0812 
    123 H123       29.7765   -1.3744   -8.6941 H         1 UNK         0.0812 
    124 H124       30.2277   -2.2285  -10.1615 H         1 UNK         0.0812 
    125 H125       32.0904   -1.0021  -11.6598 H         1 UNK         0.3205 
    126 H126       34.1404    0.7935  -10.6815 H         1 UNK         0.0754 
    127 H127       35.5892   -0.4993  -12.2303 H         1 UNK         0.0769 
    128 H128       34.1040   -0.0140  -13.0272 H         1 UNK         0.0769 
    129 H129       34.3096   -1.6792  -12.4822 H         1 UNK         0.0769 
    130 H130       33.2971   -0.1055   -8.4042 H         1 UNK         0.2981 
    131 H131       34.6749   -2.4767   -7.4399 H         1 UNK         0.0541 
    132 H132       35.9273    0.6945   -7.9556 H         1 UNK         0.3459 
    133 H133       37.2494    0.5562   -6.8230 H         1 UNK         0.3459 
    134 H134       33.7053   -1.8166   -5.2148 H         1 UNK         0.0612 
    135 H135       33.0957   -0.3425   -5.9226 H         1 UNK         0.0612 
    136 H136       32.6096   -4.0614   -5.3125 H         1 UNK         0.0624 
    137 H137       30.9254   -4.2363   -5.7449 H         1 UNK         0.0624 
@<TRIPOS>BOND
     1    1    2 1    
     2    1   72 1    
     3    1   73 1    
     4    1   74 1    
     5    2    3 2    
     6    2    4 am   BACKBONE|DICT|INTERRES
     7    4    5 1    
     8    4   75 1    
     9    5    6 1    
    10    5   35 1    
    11    5   76 1    
    12    6    7 1    
    13    6   77 1    
    14    6   78 1    
    15    7    8 1    
    16    8    9 1    
    17    8   79 1    
    18    8   80 1    
    19    9   10 ar   
    20    9   14 ar   
    21   10   11 ar   
    22   10   81 1    
    23   11   12 ar   
    24   11   71 1    
    25   12   13 ar   
    26   12   82 1    
    27   13   14 ar   
    28   13   15 1    
    29   14   83 1    
    30   15   16 1    
    31   15   84 1    
    32   15   85 1    
    33   16   17 1    
    34   17   18 1    
    35   17   86 1    
    36   17   87 1    
    37   18   19 1    
    38   18   37 1    
    39   18   88 1    
    40   19   20 am   BACKBONE|DICT|INTERRES
    41   19   89 1    
    42   20   21 2    
    43   20   22 1    
    44   22   23 1    
    45   22   24 1    
    46   22   90 1    
    47   23   91 1    
    48   23   92 1    
    49   23   93 1    
    50   24   25 am   BACKBONE|DICT|INTERRES
    51   24   94 1    
    52   25   26 2    
    53   25   27 1    
    54   27   28 1    
    55   27   29 1    
    56   27   95 1    
    57   28   96 1    
    58   28   97 1    
    59   28   98 1    
    60   29   30 am   BACKBONE|DICT|INTERRES
    61   29   99 1    
    62   30   31 2    
    63   30   32 1    
    64   32   33 1    
    65   32   34 1    
    66   32  100 1    
    67   33  101 1    
    68   33  102 1    
    69   33  103 1    
    70   34   35 am   BACKBONE|DICT|INTERRES
    71   34  104 1    
    72   35   36 2    
    73   37   38 2    
    74   37   39 am   BACKBONE|DICT|INTERRES
    75   39   40 1    
    76   39  105 1    
    77   40   41 1    
    78   40   42 1    
    79   40  106 1    
    80   41  107 1    
    81   41  108 1    
    82   41  109 1    
    83   42   43 2    
    84   42   44 am   BACKBONE|DICT|INTERRES
    85   44   45 1    
    86   44  110 1    
    87   45   46 1    
    88   45   47 1    
    89   45  111 1    
    90   46  112 1    
    91   46  113 1    
    92   46  114 1    
    93   47   48 2    
    94   47   49 am   BACKBONE|DICT|INTERRES
    95   49   50 1    
    96   49  115 1    
    97   50   51 1    
    98   50   52 1    
    99   50  116 1    
   100   51  117 1    
   101   51  118 1    
   102   51  119 1    
   103   52   53 2    
   104   52   54 am   BACKBONE|DICT|INTERRES
   105   54   55 1    
   106   54  120 1    
   107   55   56 1    
   108   55   57 1    
   109   55  121 1    
   110   56  122 1    
   111   56  123 1    
   112   56  124 1    
   113   57   58 2    
   114   57   59 am   BACKBONE|DICT|INTERRES
   115   59   60 1    
   116   59  125 1    
   117   60   61 1    
   118   60   62 1    
   119   60  126 1    
   120   61  127 1    
   121   61  128 1    
   122   61  129 1    
   123   62   63 2    
   124   62   64 am   BACKBONE|DICT|INTERRES
   125   64   65 1    
   126   64  130 1    
   127   65   66 1    
   128   65   69 1    
   129   65  131 1    
   130   66   67 am   BACKBONE|DICT|INTERRES
   131   66   68 2    
   132   67  132 1    
   133   67  133 1    
   134   69   70 1    
   135   69  134 1    
   136   69  135 1    
   137   70   71 1    
   138   71  136 1    
   139   71  137 1    
@<TRIPOS>SUBSTRUCTURE
     1 UNK         1 GROUP             0       ****    0 ROOT    
