@<TRIPOS>MOLECULE
3R137
137   139    1
SMALL
USER_CHARGES


@<TRIPOS>ATOM
      1 CA         26.3287   -4.6954    1.5688 C.3       0 UNK        -0.2020 
      2 C          26.3840   -4.2799    0.1065 C.2       0 UNK         0.4855 
      3 O          25.3893   -4.4208   -0.6048 O.2       0 UNK        -0.5197 
      4 N          27.5348   -3.7541   -0.3393 N.am      1 UNK        -0.4892 
      5 CA         27.8333   -3.3251   -1.7172 C.3       1 UNK         0.0835 
      6 C6         27.8382   -4.5011   -2.7354 C.3       12 UNK        -0.0855 
      7 S7         29.3234   -5.5443   -2.5517 S.3       12 UNK        -0.2931 
      8 C8         30.2407   -5.1500   -4.0792 C.3       12 UNK         0.0378 
      9 C9         31.0337   -3.8521   -3.9730 C.ar      12 UNK        -0.0802 
     10 C10        32.3990   -3.8894   -3.6786 C.ar      12 UNK        -0.0944 
     11 C11        33.1561   -2.7136   -3.6446 C.ar      12 UNK        -0.0787 
     12 C12        32.5303   -1.4830   -3.8699 C.ar      12 UNK        -0.0862 
     13 C13        31.1639   -1.4321   -4.1648 C.ar      12 UNK        -0.0733 
     14 C14        30.4258   -2.6183   -4.2219 C.ar      12 UNK        -0.0832 
     15 C15        30.4879   -0.1117   -4.4997 C.3       12 UNK         0.0240 
     16 S16        29.3447    0.4248   -3.1924 S.3       12 UNK        -0.2522 
     17 C17        28.3621    1.7433   -3.9961 C.3       12 UNK        -0.0967 
     18 CA         27.8426    1.4388   -5.4271 C.3       5 UNK         0.0660 
     19 N          27.1735    0.1353   -5.5495 N.am      5 UNK        -0.4015 
     20 C          26.7808   -0.4079   -6.7134 C.2       4 UNK         0.4946 
     21 O          26.9860    0.1138   -7.8083 O.2       4 UNK        -0.5353 
     22 CA         25.9762   -1.7139   -6.6590 C.3       4 UNK         0.0277 
     23 CB         26.9039   -2.9374   -6.6198 C.3       4 UNK        -0.1981 
     24 N          25.0765   -1.7333   -5.5068 N.am      4 UNK        -0.4209 
     25 C          23.8704   -1.1500   -5.4794 C.2       3 UNK         0.4942 
     26 O          23.3528   -0.6032   -6.4533 O.2       3 UNK        -0.5208 
     27 CA         23.1197   -1.1572   -4.1342 C.3       3 UNK         0.0250 
     28 CB         22.2557   -2.4219   -4.0068 C.3       3 UNK        -0.1990 
     29 N          24.0022   -1.0519   -2.9677 N.am      3 UNK        -0.4232 
     30 C          24.7642    0.0147   -2.6887 C.2       2 UNK         0.4993 
     31 O          24.7904    1.0355   -3.3759 O.2       2 UNK        -0.5286 
     32 CA         25.6975   -0.0889   -1.4699 C.3       2 UNK         0.0209 
     33 CB         24.9460    0.3010   -0.1872 C.3       2 UNK        -0.1931 
     34 N          26.3551   -1.3888   -1.2720 N.am      2 UNK        -0.4546 
     35 C          26.9960   -2.1176   -2.1999 C.2       1 UNK         0.5154 
     36 O          26.9815   -1.8408   -3.3999 O.2       1 UNK        -0.5181 
     37 C          26.9557    2.5890   -5.9454 C.2       5 UNK         0.5014 
     38 O          27.4528    3.4523   -6.6689 O.2       5 UNK        -0.5248 
     39 N          25.6512    2.5453   -5.6344 N.am      6 UNK        -0.4434 
     40 CA         24.6296    3.4586   -6.1593 C.3       6 UNK         0.0363 
     41 CB         23.2937    3.1809   -5.4520 C.3       6 UNK        -0.1936 
     42 C          24.4500    3.3829   -7.6888 C.2       6 UNK         0.5081 
     43 O          24.0703    4.3818   -8.2998 O.2       6 UNK        -0.5248 
     44 N          24.7439    2.2180   -8.2814 N.am      7 UNK        -0.4718 
     45 CA         24.7441    1.9809   -9.7277 C.3       7 UNK         0.0273 
     46 CB         24.2981    0.5307   -9.9862 C.3       7 UNK        -0.1935 
     47 C          26.1156    2.2560  -10.3787 C.2       7 UNK         0.5018 
     48 O          26.2438    2.0695  -11.5894 O.2       7 UNK        -0.5186 
     49 N          27.1113    2.6711   -9.5784 N.am      8 UNK        -0.4240 
     50 CA         28.5153    2.9166   -9.9319 C.3       8 UNK         0.0235 
     51 CB         28.6432    4.0610  -10.9601 C.3       8 UNK        -0.2000 
     52 C          29.2923    1.6503  -10.3488 C.2       8 UNK         0.4941 
     53 O          30.3369    1.7648  -10.9932 O.2       8 UNK        -0.5273 
     54 N          28.8158    0.4664   -9.9421 N.am      9 UNK        -0.4262 
     55 CA         29.4688   -0.8257  -10.1525 C.3       9 UNK         0.0264 
     56 CB         28.3879   -1.8947  -10.3970 C.3       9 UNK        -0.1955 
     57 C          30.3659   -1.1369   -8.9427 C.2       9 UNK         0.5031 
     58 O          30.0972   -2.0749   -8.1903 O.2       9 UNK        -0.5390 
     59 N          31.3872   -0.2950   -8.7532 N.am      10 UNK        -0.4204 
     60 CA         32.3003   -0.3146   -7.6129 C.3       10 UNK         0.0237 
     61 CB         32.5333    1.1416   -7.1683 C.3       10 UNK        -0.1985 
     62 C          33.6337   -0.9950   -7.9510 C.2       10 UNK         0.4970 
     63 O          33.9267   -1.2470   -9.1222 O.2       10 UNK        -0.4914 
     64 N          34.4337   -1.2330   -6.9032 N.am      11 UNK        -0.4285 
     65 CA         35.8184   -1.7275   -6.9756 C.3       11 UNK         0.1007 
     66 C          36.8145   -0.7804   -7.7108 C.2       11 UNK         0.5703 
     67 N          36.5261    0.5077   -7.8595 N.am      11 UNK        -0.7361 
     68 O          37.8694   -1.2275   -8.1548 O.2       11 UNK        -0.4986 
     69 C69        36.3657   -2.0787   -5.5653 C.3       12 UNK        -0.0947 
     70 S70        35.5384   -3.5132   -4.7994 S.3       12 UNK        -0.2240 
     71 C71        34.6512   -2.7932   -3.3766 C.3       12 UNK         0.0194 
     72 H72        27.2713   -4.5094    2.0834 H         1 UNK         0.0906 
     73 H73        25.5446   -4.1437    2.0867 H         1 UNK         0.0906 
     74 H74        26.1049   -5.7590    1.6470 H         1 UNK         0.0906 
     75 H75        28.3085   -3.6641    0.3060 H         1 UNK         0.3140 
     76 H76        28.8475   -2.9226   -1.6833 H         1 UNK         0.1085 
     77 H77        27.7937   -4.1549   -3.7666 H         1 UNK         0.0836 
     78 H78        26.9537   -5.1274   -2.6150 H         1 UNK         0.0836 
     79 H79        29.5589   -5.1065   -4.9300 H         1 UNK         0.0731 
     80 H80        30.9192   -5.9779   -4.2911 H         1 UNK         0.0731 
     81 H81        32.8845   -4.8400   -3.5031 H         1 UNK         0.1312 
     82 H82        33.1080   -0.5695   -3.8347 H         1 UNK         0.1406 
     83 H83        29.3767   -2.5723   -4.4712 H         1 UNK         0.1631 
     84 H84        29.9584   -0.2524   -5.4405 H         1 UNK         0.0717 
     85 H85        31.2232    0.6761   -4.6628 H         1 UNK         0.0717 
     86 H86        27.5252    1.9689   -3.3332 H         1 UNK         0.0934 
     87 H87        28.9756    2.6463   -4.0114 H         1 UNK         0.0934 
     88 H88        28.7019    1.4172   -6.0994 H         1 UNK         0.0739 
     89 H89        27.0201   -0.3855   -4.6906 H         1 UNK         0.3093 
     90 H90        25.3820   -1.7768   -7.5733 H         1 UNK         0.0818 
     91 H91        27.5509   -2.9260   -5.7464 H         1 UNK         0.0819 
     92 H92        26.3354   -3.8671   -6.6053 H         1 UNK         0.0819 
     93 H93        27.5525   -2.9676   -7.4950 H         1 UNK         0.0819 
     94 H94        25.4718   -2.0777   -4.6379 H         1 UNK         0.3041 
     95 H95        22.4574   -0.2887   -4.1273 H         1 UNK         0.0784 
     96 H96        21.5736   -2.5150   -4.8532 H         1 UNK         0.0793 
     97 H97        22.8647   -3.3265   -3.9774 H         1 UNK         0.0793 
     98 H98        21.6462   -2.3970   -3.1032 H         1 UNK         0.0793 
     99 H99        24.0629   -1.8557   -2.3586 H         1 UNK         0.3024 
    100 H100       26.4952    0.6394   -1.6245 H         1 UNK         0.1171 
    101 H101       25.6239    0.3785    0.6631 H         1 UNK         0.0786 
    102 H102       24.4589    1.2711   -0.2981 H         1 UNK         0.0786 
    103 H103       24.1727   -0.4259    0.0644 H         1 UNK         0.0786 
    104 H104       26.4175   -1.7158   -0.3189 H         1 UNK         0.2977 
    105 H105       25.3309    1.8458   -4.9659 H         1 UNK         0.3127 
    106 H106       24.9413    4.4768   -5.9175 H         1 UNK         0.0770 
    107 H107       22.9494    2.1612   -5.6304 H         1 UNK         0.0814 
    108 H108       22.5143    3.8569   -5.8061 H         1 UNK         0.0814 
    109 H109       23.3789    3.3207   -4.3742 H         1 UNK         0.0814 
    110 H110       25.0678    1.4507   -7.7069 H         1 UNK         0.2983 
    111 H111       24.0221    2.6471  -10.2048 H         1 UNK         0.0947 
    112 H112       24.1924    0.3381  -11.0545 H         1 UNK         0.0806 
    113 H113       23.3332    0.3228   -9.5231 H         1 UNK         0.0806 
    114 H114       25.0175   -0.1900   -9.5970 H         1 UNK         0.0806 
    115 H115       26.9001    2.7853   -8.5932 H         1 UNK         0.3000 
    116 H116       28.9908    3.2565   -9.0107 H         1 UNK         0.0850 
    117 H117       29.6854    4.3548  -11.0910 H         1 UNK         0.0810 
    118 H118       28.0973    4.9474  -10.6371 H         1 UNK         0.0810 
    119 H119       28.2646    3.7707  -11.9404 H         1 UNK         0.0810 
    120 H120       28.0114    0.4543   -9.3161 H         1 UNK         0.3040 
    121 H121       30.1066   -0.7896  -11.0383 H         1 UNK         0.0766 
    122 H122       28.8313   -2.8853  -10.5049 H         1 UNK         0.0812 
    123 H123       27.8302   -1.6864  -11.3101 H         1 UNK         0.0812 
    124 H124       27.6719   -1.9405   -9.5771 H         1 UNK         0.0812 
    125 H125       31.5531    0.4151   -9.4550 H         1 UNK         0.3205 
    126 H126       31.8486   -0.8746   -6.7951 H         1 UNK         0.0754 
    127 H127       33.0376    1.7231   -7.9415 H         1 UNK         0.0769 
    128 H128       33.1472    1.1939   -6.2684 H         1 UNK         0.0769 
    129 H129       31.5910    1.6418   -6.9429 H         1 UNK         0.0769 
    130 H130       34.0998   -1.0200   -5.9766 H         1 UNK         0.2981 
    131 H131       35.7942   -2.6463   -7.5646 H         1 UNK         0.0541 
    132 H132       35.6686    0.8885   -7.4957 H         1 UNK         0.3459 
    133 H133       37.1802    1.1053   -8.3397 H         1 UNK         0.3459 
    134 H134       36.3112   -1.2102   -4.9074 H         1 UNK         0.0612 
    135 H135       37.4245   -2.3395   -5.6217 H         1 UNK         0.0612 
    136 H136       35.0581   -1.8155   -3.1164 H         1 UNK         0.0624 
    137 H137       34.8206   -3.4293   -2.5067 H         1 UNK         0.0624 
@<TRIPOS>BOND
     1    1    2 1    
     2    1   72 1    
     3    1   73 1    
     4    1   74 1    
     5    2    3 2    
     6    2    4 am   BACKBONE|DICT|INTERRES
     7    4    5 1    
     8    4   75 1    
     9    5    6 1    
    10    5   35 1    
    11    5   76 1    
    12    6    7 1    
    13    6   77 1    
    14    6   78 1    
    15    7    8 1    
    16    8    9 1    
    17    8   79 1    
    18    8   80 1    
    19    9   10 ar   
    20    9   14 ar   
    21   10   11 ar   
    22   10   81 1    
    23   11   12 ar   
    24   11   71 1    
    25   12   13 ar   
    26   12   82 1    
    27   13   14 ar   
    28   13   15 1    
    29   14   83 1    
    30   15   16 1    
    31   15   84 1    
    32   15   85 1    
    33   16   17 1    
    34   17   18 1    
    35   17   86 1    
    36   17   87 1    
    37   18   19 1    
    38   18   37 1    
    39   18   88 1    
    40   19   20 am   BACKBONE|DICT|INTERRES
    41   19   89 1    
    42   20   21 2    
    43   20   22 1    
    44   22   23 1    
    45   22   24 1    
    46   22   90 1    
    47   23   91 1    
    48   23   92 1    
    49   23   93 1    
    50   24   25 am   BACKBONE|DICT|INTERRES
    51   24   94 1    
    52   25   26 2    
    53   25   27 1    
    54   27   28 1    
    55   27   29 1    
    56   27   95 1    
    57   28   96 1    
    58   28   97 1    
    59   28   98 1    
    60   29   30 am   BACKBONE|DICT|INTERRES
    61   29   99 1    
    62   30   31 2    
    63   30   32 1    
    64   32   33 1    
    65   32   34 1    
    66   32  100 1    
    67   33  101 1    
    68   33  102 1    
    69   33  103 1    
    70   34   35 am   BACKBONE|DICT|INTERRES
    71   34  104 1    
    72   35   36 2    
    73   37   38 2    
    74   37   39 am   BACKBONE|DICT|INTERRES
    75   39   40 1    
    76   39  105 1    
    77   40   41 1    
    78   40   42 1    
    79   40  106 1    
    80   41  107 1    
    81   41  108 1    
    82   41  109 1    
    83   42   43 2    
    84   42   44 am   BACKBONE|DICT|INTERRES
    85   44   45 1    
    86   44  110 1    
    87   45   46 1    
    88   45   47 1    
    89   45  111 1    
    90   46  112 1    
    91   46  113 1    
    92   46  114 1    
    93   47   48 2    
    94   47   49 am   BACKBONE|DICT|INTERRES
    95   49   50 1    
    96   49  115 1    
    97   50   51 1    
    98   50   52 1    
    99   50  116 1    
   100   51  117 1    
   101   51  118 1    
   102   51  119 1    
   103   52   53 2    
   104   52   54 am   BACKBONE|DICT|INTERRES
   105   54   55 1    
   106   54  120 1    
   107   55   56 1    
   108   55   57 1    
   109   55  121 1    
   110   56  122 1    
   111   56  123 1    
   112   56  124 1    
   113   57   58 2    
   114   57   59 am   BACKBONE|DICT|INTERRES
   115   59   60 1    
   116   59  125 1    
   117   60   61 1    
   118   60   62 1    
   119   60  126 1    
   120   61  127 1    
   121   61  128 1    
   122   61  129 1    
   123   62   63 2    
   124   62   64 am   BACKBONE|DICT|INTERRES
   125   64   65 1    
   126   64  130 1    
   127   65   66 1    
   128   65   69 1    
   129   65  131 1    
   130   66   67 am   BACKBONE|DICT|INTERRES
   131   66   68 2    
   132   67  132 1    
   133   67  133 1    
   134   69   70 1    
   135   69  134 1    
   136   69  135 1    
   137   70   71 1    
   138   71  136 1    
   139   71  137 1    
@<TRIPOS>SUBSTRUCTURE
     1 UNK         1 GROUP             0       ****    0 ROOT    
