@<TRIPOS>MOLECULE
3R137
137   139    1
SMALL
USER_CHARGES


@<TRIPOS>ATOM
      1 CA         23.2877   -4.0501   -2.2081 C.3       0 UNK        -0.2020 
      2 C          24.2959   -2.9990   -1.7707 C.2       0 UNK         0.4855 
      3 O          23.9074   -1.9929   -1.1760 O.2       0 UNK        -0.5197 
      4 N          25.5856   -3.2199   -2.0636 N.am      1 UNK        -0.4892 
      5 CA         26.7077   -2.3273   -1.7426 C.3       1 UNK         0.0835 
      6 C6         28.0666   -2.9069   -2.2119 C.3       12 UNK        -0.0855 
      7 S7         28.4004   -4.5686   -1.5374 S.3       12 UNK        -0.2931 
      8 C8         30.2207   -4.5497   -1.3759 C.3       12 UNK         0.0378 
      9 C9         30.9714   -4.3782   -2.6970 C.ar      12 UNK        -0.0802 
     10 C10        32.1451   -3.6175   -2.7265 C.ar      12 UNK        -0.0944 
     11 C11        32.8672   -3.4616   -3.9141 C.ar      12 UNK        -0.0787 
     12 C12        32.4003   -4.0599   -5.0872 C.ar      12 UNK        -0.0862 
     13 C13        31.2289   -4.8210   -5.0756 C.ar      12 UNK        -0.0733 
     14 C14        30.5316   -4.9940   -3.8753 C.ar      12 UNK        -0.0832 
     15 C15        30.7180   -5.4554   -6.3619 C.3       12 UNK         0.0240 
     16 S16        29.9281   -4.2332   -7.4591 S.3       12 UNK        -0.2522 
     17 C17        28.4709   -3.7541   -6.4713 C.3       12 UNK        -0.0967 
     18 CA         27.7868   -2.4542   -6.9594 C.3       5 UNK         0.0660 
     19 N          26.4170   -2.3695   -6.4415 N.am      5 UNK        -0.4015 
     20 C          25.5399   -1.3739   -6.6229 C.2       4 UNK         0.4946 
     21 O          25.8199   -0.3019   -7.1586 O.2       4 UNK        -0.5353 
     22 CA         24.1018   -1.6163   -6.1457 C.3       4 UNK         0.0277 
     23 CB         23.7762   -3.0899   -5.8154 C.3       4 UNK        -0.1981 
     24 N          23.8258   -0.7774   -4.9833 N.am      4 UNK        -0.4209 
     25 C          22.6313   -0.2349   -4.7048 C.2       3 UNK         0.4942 
     26 O          21.6489   -0.3545   -5.4390 O.2       3 UNK        -0.5208 
     27 CA         22.4682    0.5484   -3.3869 C.3       3 UNK         0.0250 
     28 CB         21.3711   -0.0815   -2.5102 C.3       3 UNK        -0.1990 
     29 N          23.7069    0.6251   -2.6103 N.am      3 UNK        -0.4232 
     30 C          24.6244    1.5928   -2.7449 C.2       2 UNK         0.4993 
     31 O          24.4819    2.5677   -3.4820 O.2       2 UNK        -0.5286 
     32 CA         25.9308    1.4550   -1.9403 C.3       2 UNK         0.0209 
     33 CB         25.8947    2.3582   -0.6969 C.3       2 UNK        -0.1931 
     34 N          26.2502    0.0822   -1.5270 N.am      2 UNK        -0.4546 
     35 C          26.4829   -0.9368   -2.3650 C.2       1 UNK         0.5154 
     36 O          26.4801   -0.8248   -3.5928 O.2       1 UNK        -0.5181 
     37 C          28.6631   -1.2092   -6.6949 C.2       5 UNK         0.5014 
     38 O          29.3656   -0.7761   -7.6066 O.2       5 UNK        -0.5248 
     39 N          28.5844   -0.6169   -5.4947 N.am      6 UNK        -0.4434 
     40 CA         29.3795    0.5631   -5.1339 C.3       6 UNK         0.0363 
     41 CB         29.6157    0.6042   -3.6163 C.3       6 UNK        -0.1936 
     42 C          28.8119    1.8898   -5.6794 C.2       6 UNK         0.5081 
     43 O          29.4373    2.9322   -5.4804 O.2       6 UNK        -0.5248 
     44 N          27.6676    1.8430   -6.3725 N.am      7 UNK        -0.4718 
     45 CA         27.1553    2.9360   -7.1982 C.3       7 UNK         0.0273 
     46 CB         25.6784    3.1897   -6.8543 C.3       7 UNK        -0.1935 
     47 C          27.3172    2.6077   -8.6919 C.2       7 UNK         0.5018 
     48 O          27.6697    3.4961   -9.4684 O.2       7 UNK        -0.5186 
     49 N          27.0334    1.3539   -9.0721 N.am      8 UNK        -0.4240 
     50 CA         27.0058    0.8860  -10.4579 C.3       8 UNK         0.0235 
     51 CB         26.1698   -0.4026  -10.5345 C.3       8 UNK        -0.2000 
     52 C          28.3919    0.6574  -11.0838 C.2       8 UNK         0.4941 
     53 O          28.5598    0.9535  -12.2684 O.2       8 UNK        -0.5273 
     54 N          29.3382    0.1032  -10.3156 N.am      9 UNK        -0.4262 
     55 CA         30.6728   -0.2811  -10.7817 C.3       9 UNK         0.0264 
     56 CB         30.9603   -1.7223  -10.3149 C.3       9 UNK        -0.1955 
     57 C          31.7399    0.6948  -10.2620 C.2       9 UNK         0.5031 
     58 O          31.4262    1.6432   -9.5383 O.2       9 UNK        -0.5390 
     59 N          33.0026    0.4247  -10.6261 N.am      10 UNK        -0.4204 
     60 CA         34.1948    1.2093  -10.2741 C.3       10 UNK         0.0237 
     61 CB         35.4187    0.6045  -10.9824 C.3       10 UNK        -0.1985 
     62 C          34.4672    1.3550   -8.7630 C.2       10 UNK         0.4970 
     63 O          35.1915    2.2727   -8.3752 O.2       10 UNK        -0.4914 
     64 N          33.8781    0.4753   -7.9419 N.am      11 UNK        -0.4285 
     65 CA         33.8195    0.6073   -6.4789 C.3       11 UNK         0.1007 
     66 C          32.9655    1.8176   -5.9872 C.2       11 UNK         0.5703 
     67 N          32.0842    2.3849   -6.8021 N.am      11 UNK        -0.7361 
     68 O          33.1142    2.2598   -4.8511 O.2       11 UNK        -0.4986 
     69 C69        33.3626   -0.7287   -5.8304 C.3       12 UNK        -0.0947 
     70 S70        33.8519   -0.8779   -4.0782 S.3       12 UNK        -0.2240 
     71 C71        34.1617   -2.6622   -3.9218 C.3       12 UNK         0.0194 
     72 H72        22.5538   -3.6071   -2.8808 H         1 UNK         0.0906 
     73 H73        23.7633   -4.8837   -2.7244 H         1 UNK         0.0906 
     74 H74        22.7594   -4.4450   -1.3408 H         1 UNK         0.0906 
     75 H75        25.8482   -4.0774   -2.5282 H         1 UNK         0.3140 
     76 H76        26.7399   -2.2234   -0.6559 H         1 UNK         0.1085 
     77 H77        28.1056   -2.9742   -3.2996 H         1 UNK         0.0836 
     78 H78        28.8799   -2.2392   -1.9200 H         1 UNK         0.0836 
     79 H79        30.4957   -3.7596   -0.6753 H         1 UNK         0.0731 
     80 H80        30.5379   -5.4882   -0.9197 H         1 UNK         0.0731 
     81 H81        32.5066   -3.1495   -1.8208 H         1 UNK         0.1312 
     82 H82        32.9459   -3.9330   -6.0123 H         1 UNK         0.1406 
     83 H83        29.6342   -5.5973   -3.8629 H         1 UNK         0.1631 
     84 H84        30.0099   -6.2571   -6.1462 H         1 UNK         0.0717 
     85 H85        31.5508   -5.9189   -6.8927 H         1 UNK         0.0717 
     86 H86        27.7726   -4.5913   -6.5200 H         1 UNK         0.0934 
     87 H87        28.7488   -3.6557   -5.4232 H         1 UNK         0.0934 
     88 H88        27.6771   -2.5268   -8.0434 H         1 UNK         0.0739 
     89 H89        26.0783   -3.1935   -5.9691 H         1 UNK         0.3093 
     90 H90        23.4630   -1.3070   -6.9760 H         1 UNK         0.0818 
     91 H91        22.7194   -3.2094   -5.5752 H         1 UNK         0.0819 
     92 H92        23.9796   -3.7421   -6.6661 H         1 UNK         0.0819 
     93 H93        24.3474   -3.4565   -4.9626 H         1 UNK         0.0819 
     94 H94        24.6177   -0.5969   -4.3738 H         1 UNK         0.3041 
     95 H95        22.1431    1.5566   -3.6522 H         1 UNK         0.0784 
     96 H96        20.4082   -0.0752   -3.0228 H         1 UNK         0.0793 
     97 H97        21.5977   -1.1181   -2.2595 H         1 UNK         0.0793 
     98 H98        21.2428    0.4688   -1.5780 H         1 UNK         0.0793 
     99 H99        23.8962   -0.1556   -1.9871 H         1 UNK         0.3024 
    100 H100       26.7300    1.8081   -2.5941 H         1 UNK         0.1171 
    101 H101       25.6844    3.3930   -0.9714 H         1 UNK         0.0786 
    102 H102       26.8511    2.3530   -0.1738 H         1 UNK         0.0786 
    103 H103       25.1228    2.0447    0.0071 H         1 UNK         0.0786 
    104 H104       26.2293   -0.1015   -0.5337 H         1 UNK         0.2977 
    105 H105       27.8812   -0.9198   -4.8246 H         1 UNK         0.3127 
    106 H106       30.3619    0.4519   -5.5933 H         1 UNK         0.0770 
    107 H107       28.6968    0.7806   -3.0648 H         1 UNK         0.0814 
    108 H108       30.3075    1.4067   -3.3563 H         1 UNK         0.0814 
    109 H109       30.0568   -0.3264   -3.2589 H         1 UNK         0.0814 
    110 H110       27.1939    0.9508   -6.4701 H         1 UNK         0.2983 
    111 H111       27.7083    3.8580   -7.0053 H         1 UNK         0.0947 
    112 H112       25.2631    3.9839   -7.4759 H         1 UNK         0.0806 
    113 H113       25.5661    3.4997   -5.8155 H         1 UNK         0.0806 
    114 H114       25.0641    2.3011   -7.0040 H         1 UNK         0.0806 
    115 H115       26.6884    0.7028   -8.3693 H         1 UNK         0.3000 
    116 H116       26.5002    1.6468  -11.0569 H         1 UNK         0.0850 
    117 H117       26.0977   -0.7622  -11.5619 H         1 UNK         0.0810 
    118 H118       25.1533   -0.2377  -10.1765 H         1 UNK         0.0810 
    119 H119       26.6080   -1.2032   -9.9376 H         1 UNK         0.0810 
    120 H120       29.1629   -0.0569   -9.3254 H         1 UNK         0.3040 
    121 H121       30.7114   -0.2628  -11.8727 H         1 UNK         0.0766 
    122 H122       31.8544   -2.1264  -10.7899 H         1 UNK         0.0812 
    123 H123       30.1380   -2.3924  -10.5669 H         1 UNK         0.0812 
    124 H124       31.1125   -1.7800   -9.2367 H         1 UNK         0.0812 
    125 H125       33.1634   -0.3754  -11.2212 H         1 UNK         0.3205 
    126 H126       34.0402    2.2179  -10.6628 H         1 UNK         0.0754 
    127 H127       36.3194    1.1832  -10.7713 H         1 UNK         0.0769 
    128 H128       35.2896    0.5979  -12.0650 H         1 UNK         0.0769 
    129 H129       35.6070   -0.4200  -10.6585 H         1 UNK         0.0769 
    130 H130       33.2940   -0.2386   -8.3483 H         1 UNK         0.2981 
    131 H131       34.8423    0.8020   -6.1502 H         1 UNK         0.0541 
    132 H132       31.9378    2.0493   -7.7503 H         1 UNK         0.3459 
    133 H133       31.4950    3.1196   -6.4390 H         1 UNK         0.3459 
    134 H134       33.8133   -1.5635   -6.3690 H         1 UNK         0.0612 
    135 H135       32.2838   -0.8679   -5.9172 H         1 UNK         0.0612 
    136 H136       34.7043   -2.8407   -2.9923 H         1 UNK         0.0624 
    137 H137       34.8209   -2.9959   -4.7247 H         1 UNK         0.0624 
@<TRIPOS>BOND
     1    1    2 1    
     2    1   72 1    
     3    1   73 1    
     4    1   74 1    
     5    2    3 2    
     6    2    4 am   BACKBONE|DICT|INTERRES
     7    4    5 1    
     8    4   75 1    
     9    5    6 1    
    10    5   35 1    
    11    5   76 1    
    12    6    7 1    
    13    6   77 1    
    14    6   78 1    
    15    7    8 1    
    16    8    9 1    
    17    8   79 1    
    18    8   80 1    
    19    9   10 ar   
    20    9   14 ar   
    21   10   11 ar   
    22   10   81 1    
    23   11   12 ar   
    24   11   71 1    
    25   12   13 ar   
    26   12   82 1    
    27   13   14 ar   
    28   13   15 1    
    29   14   83 1    
    30   15   16 1    
    31   15   84 1    
    32   15   85 1    
    33   16   17 1    
    34   17   18 1    
    35   17   86 1    
    36   17   87 1    
    37   18   19 1    
    38   18   37 1    
    39   18   88 1    
    40   19   20 am   BACKBONE|DICT|INTERRES
    41   19   89 1    
    42   20   21 2    
    43   20   22 1    
    44   22   23 1    
    45   22   24 1    
    46   22   90 1    
    47   23   91 1    
    48   23   92 1    
    49   23   93 1    
    50   24   25 am   BACKBONE|DICT|INTERRES
    51   24   94 1    
    52   25   26 2    
    53   25   27 1    
    54   27   28 1    
    55   27   29 1    
    56   27   95 1    
    57   28   96 1    
    58   28   97 1    
    59   28   98 1    
    60   29   30 am   BACKBONE|DICT|INTERRES
    61   29   99 1    
    62   30   31 2    
    63   30   32 1    
    64   32   33 1    
    65   32   34 1    
    66   32  100 1    
    67   33  101 1    
    68   33  102 1    
    69   33  103 1    
    70   34   35 am   BACKBONE|DICT|INTERRES
    71   34  104 1    
    72   35   36 2    
    73   37   38 2    
    74   37   39 am   BACKBONE|DICT|INTERRES
    75   39   40 1    
    76   39  105 1    
    77   40   41 1    
    78   40   42 1    
    79   40  106 1    
    80   41  107 1    
    81   41  108 1    
    82   41  109 1    
    83   42   43 2    
    84   42   44 am   BACKBONE|DICT|INTERRES
    85   44   45 1    
    86   44  110 1    
    87   45   46 1    
    88   45   47 1    
    89   45  111 1    
    90   46  112 1    
    91   46  113 1    
    92   46  114 1    
    93   47   48 2    
    94   47   49 am   BACKBONE|DICT|INTERRES
    95   49   50 1    
    96   49  115 1    
    97   50   51 1    
    98   50   52 1    
    99   50  116 1    
   100   51  117 1    
   101   51  118 1    
   102   51  119 1    
   103   52   53 2    
   104   52   54 am   BACKBONE|DICT|INTERRES
   105   54   55 1    
   106   54  120 1    
   107   55   56 1    
   108   55   57 1    
   109   55  121 1    
   110   56  122 1    
   111   56  123 1    
   112   56  124 1    
   113   57   58 2    
   114   57   59 am   BACKBONE|DICT|INTERRES
   115   59   60 1    
   116   59  125 1    
   117   60   61 1    
   118   60   62 1    
   119   60  126 1    
   120   61  127 1    
   121   61  128 1    
   122   61  129 1    
   123   62   63 2    
   124   62   64 am   BACKBONE|DICT|INTERRES
   125   64   65 1    
   126   64  130 1    
   127   65   66 1    
   128   65   69 1    
   129   65  131 1    
   130   66   67 am   BACKBONE|DICT|INTERRES
   131   66   68 2    
   132   67  132 1    
   133   67  133 1    
   134   69   70 1    
   135   69  134 1    
   136   69  135 1    
   137   70   71 1    
   138   71  136 1    
   139   71  137 1    
@<TRIPOS>SUBSTRUCTURE
     1 UNK         1 GROUP             0       ****    0 ROOT    
