@<TRIPOS>MOLECULE
3R137
137   139    1
SMALL
USER_CHARGES


@<TRIPOS>ATOM
      1 CA         29.1091   -6.4523   -0.7260 C.3       0 UNK        -0.2020 
      2 C          28.8500   -5.2493    0.1693 C.2       0 UNK         0.4855 
      3 O          29.5167   -5.0928    1.1924 O.2       0 UNK        -0.5197 
      4 N          27.8898   -4.3998   -0.2102 N.am      1 UNK        -0.4892 
      5 CA         27.4752   -3.2088    0.5376 C.3       1 UNK         0.0835 
      6 C6         28.5062   -2.0425    0.5124 C.3       12 UNK        -0.0855 
      7 S7         28.8775   -1.3800   -1.1522 S.3       12 UNK        -0.2931 
      8 C8         30.4376   -2.2233   -1.5509 C.3       12 UNK         0.0378 
      9 C9         30.5023   -2.5781   -3.0278 C.ar      12 UNK        -0.0802 
     10 C10        31.3293   -1.8619   -3.8972 C.ar      12 UNK        -0.0944 
     11 C11        31.4240   -2.2175   -5.2502 C.ar      12 UNK        -0.0787 
     12 C12        30.6625   -3.2950   -5.7200 C.ar      12 UNK        -0.0862 
     13 C13        29.8168   -4.0085   -4.8649 C.ar      12 UNK        -0.0733 
     14 C14        29.7465   -3.6453   -3.5186 C.ar      12 UNK        -0.0832 
     15 C15        29.0139   -5.2017   -5.3736 C.3       12 UNK         0.0240 
     16 S16        27.9000   -4.8006   -6.7607 S.3       12 UNK        -0.2522 
     17 C17        26.7164   -3.6336   -6.0050 C.3       12 UNK        -0.0967 
     18 CA         26.4806   -2.3929   -6.9026 C.3       5 UNK         0.0660 
     19 N          25.2417   -1.6869   -6.5655 N.am      5 UNK        -0.4015 
     20 C          24.6651   -0.7553   -7.3406 C.2       4 UNK         0.4946 
     21 O          25.0905   -0.4199   -8.4452 O.2       4 UNK        -0.5353 
     22 CA         23.4244   -0.0461   -6.7736 C.3       4 UNK         0.0277 
     23 CB         22.1648   -0.9015   -6.9841 C.3       4 UNK        -0.1981 
     24 N          23.5645    0.2890   -5.3555 N.am      4 UNK        -0.4209 
     25 C          24.4677    1.1520   -4.8675 C.2       3 UNK         0.4942 
     26 O          25.2408    1.8045   -5.5668 O.2       3 UNK        -0.5208 
     27 CA         24.5552    1.2743   -3.3377 C.3       3 UNK         0.0250 
     28 CB         23.5873    2.3536   -2.8272 C.3       3 UNK        -0.1990 
     29 N          24.3093    0.0149   -2.6260 N.am      3 UNK        -0.4232 
     30 C          25.0316   -1.1037   -2.7771 C.2       2 UNK         0.4993 
     31 O          25.9547   -1.2299   -3.5875 O.2       2 UNK        -0.5286 
     32 CA         24.6441   -2.2966   -1.9010 C.3       2 UNK         0.0209 
     33 CB         24.0557   -3.4294   -2.7596 C.3       2 UNK        -0.1931 
     34 N          25.8601   -2.7667   -1.2481 N.am      2 UNK        -0.4546 
     35 C          26.0735   -2.7755    0.0748 C.2       1 UNK         0.5154 
     36 O          25.2166   -2.4891    0.9125 O.2       1 UNK        -0.5181 
     37 C          27.6788   -1.4280   -6.8875 C.2       5 UNK         0.5014 
     38 O          28.4509   -1.4100   -7.8485 O.2       5 UNK        -0.5248 
     39 N          27.7704   -0.6081   -5.8282 N.am      6 UNK        -0.4434 
     40 CA         28.7872    0.4324   -5.6730 C.3       6 UNK         0.0363 
     41 CB         28.6234    1.1373   -4.3195 C.3       6 UNK        -0.1936 
     42 C          28.7911    1.4448   -6.8280 C.2       6 UNK         0.5081 
     43 O          29.8625    1.7566   -7.3446 O.2       6 UNK        -0.5248 
     44 N          27.5999    1.8990   -7.2411 N.am      7 UNK        -0.4718 
     45 CA         27.4025    2.7708   -8.3985 C.3       7 UNK         0.0273 
     46 CB         25.9526    3.2806   -8.4244 C.3       7 UNK        -0.1935 
     47 C          27.7656    2.0898   -9.7279 C.2       7 UNK         0.5018 
     48 O          28.5073    2.6786  -10.5148 O.2       7 UNK        -0.5186 
     49 N          27.2525    0.8702   -9.9542 N.am      8 UNK        -0.4240 
     50 CA         27.4525    0.1014  -11.1877 C.3       8 UNK         0.0235 
     51 CB         26.5691   -1.1565  -11.1736 C.3       8 UNK        -0.2000 
     52 C          28.9181   -0.2773  -11.4497 C.2       8 UNK         0.4941 
     53 O          29.3835   -0.1322  -12.5808 O.2       8 UNK        -0.5273 
     54 N          29.6194   -0.7410  -10.4071 N.am      9 UNK        -0.4262 
     55 CA         31.0341   -1.1200  -10.4719 C.3       9 UNK         0.0264 
     56 CB         31.2706   -2.3142   -9.5359 C.3       9 UNK        -0.1955 
     57 C          31.9979    0.0510  -10.1876 C.2       9 UNK         0.5031 
     58 O          33.2112   -0.1532  -10.2491 O.2       9 UNK        -0.5390 
     59 N          31.4554    1.2482   -9.9175 N.am      10 UNK        -0.4204 
     60 CA         32.1458    2.5280   -9.7189 C.3       10 UNK         0.0237 
     61 CB         32.7976    3.0012  -11.0364 C.3       10 UNK        -0.1985 
     62 C          33.1209    2.5345   -8.5240 C.2       10 UNK         0.4970 
     63 O          34.2533    3.0066   -8.6539 O.2       10 UNK        -0.4914 
     64 N          32.6534    2.0365   -7.3742 N.am      11 UNK        -0.4285 
     65 CA         33.3324    2.1766   -6.0780 C.3       11 UNK         0.1007 
     66 C          33.0751    3.5778   -5.4604 C.2       11 UNK         0.5703 
     67 N          34.0123    4.0854   -4.6712 N.am      11 UNK        -0.7361 
     68 O          32.0294    4.1943   -5.6588 O.2       11 UNK        -0.4986 
     69 C69        32.9300    1.0500   -5.0914 C.3       12 UNK        -0.0947 
     70 S70        33.7094   -0.5402   -5.5274 S.3       12 UNK        -0.2240 
     71 C71        32.3112   -1.4627   -6.2447 C.3       12 UNK         0.0194 
     72 H72        30.1174   -6.4027   -1.1367 H         1 UNK         0.0906 
     73 H73        29.0208   -7.3737   -0.1508 H         1 UNK         0.0906 
     74 H74        28.4059   -6.5048   -1.5572 H         1 UNK         0.0906 
     75 H75        27.3169   -4.6192   -1.0133 H         1 UNK         0.3140 
     76 H76        27.3599   -3.5147    1.5805 H         1 UNK         0.1085 
     77 H77        28.1392   -1.2159    1.1237 H         1 UNK         0.0836 
     78 H78        29.4347   -2.3549    0.9920 H         1 UNK         0.0836 
     79 H79        31.2726   -1.5822   -1.2643 H         1 UNK         0.0731 
     80 H80        30.5403   -3.1365   -0.9647 H         1 UNK         0.0731 
     81 H81        31.9012   -1.0333   -3.5068 H         1 UNK         0.1312 
     82 H82        30.7203   -3.5839   -6.7600 H         1 UNK         0.1406 
     83 H83        29.1092   -4.1975   -2.8440 H         1 UNK         0.1631 
     84 H84        28.4231   -5.6466   -4.5713 H         1 UNK         0.0717 
     85 H85        29.7110   -5.9738   -5.7015 H         1 UNK         0.0717 
     86 H86        25.7803   -4.1770   -5.8679 H         1 UNK         0.0934 
     87 H87        27.0439   -3.3437   -5.0046 H         1 UNK         0.0934 
     88 H88        26.3633   -2.7433   -7.9307 H         1 UNK         0.0739 
     89 H89        24.8748   -1.8406   -5.6378 H         1 UNK         0.3093 
     90 H90        23.2987    0.8880   -7.3257 H         1 UNK         0.0818 
     91 H91        21.2671   -0.3701   -6.6673 H         1 UNK         0.0819 
     92 H92        22.0357   -1.1501   -8.0386 H         1 UNK         0.0819 
     93 H93        22.2122   -1.8408   -6.4317 H         1 UNK         0.0819 
     94 H94        22.9603   -0.1914   -4.7051 H         1 UNK         0.3041 
     95 H95        25.5718    1.5890   -3.0948 H         1 UNK         0.0784 
     96 H96        23.7662    3.3059   -3.3289 H         1 UNK         0.0793 
     97 H97        22.5460    2.0821   -3.0053 H         1 UNK         0.0793 
     98 H98        23.7124    2.5260   -1.7579 H         1 UNK         0.0793 
     99 H99        23.5656    0.0262   -1.9423 H         1 UNK         0.3024 
    100 H100       23.8981   -1.9850   -1.1658 H         1 UNK         0.1171 
    101 H101       23.1563   -3.0999   -3.2816 H         1 UNK         0.0786 
    102 H102       23.7767   -4.2844   -2.1435 H         1 UNK         0.0786 
    103 H103       24.7631   -3.7800   -3.5122 H         1 UNK         0.0786 
    104 H104       26.6621   -2.8496   -1.8592 H         1 UNK         0.2977 
    105 H105       27.1037   -0.7169   -5.0676 H         1 UNK         0.3127 
    106 H106       29.7533   -0.0684   -5.6755 H         1 UNK         0.0770 
    107 H107       27.6761    1.6713   -4.2544 H         1 UNK         0.0814 
    108 H108       29.4206    1.8648   -4.1618 H         1 UNK         0.0814 
    109 H109       28.6654    0.4247   -3.4966 H         1 UNK         0.0814 
    110 H110       26.7670    1.6364   -6.7193 H         1 UNK         0.2983 
    111 H111       28.0625    3.6329   -8.2795 H         1 UNK         0.0947 
    112 H112       25.7830    3.9372   -9.2788 H         1 UNK         0.0806 
    113 H113       25.7188    3.8510   -7.5252 H         1 UNK         0.0806 
    114 H114       25.2364    2.4607   -8.4927 H         1 UNK         0.0806 
    115 H115       26.6324    0.4583   -9.2607 H         1 UNK         0.3000 
    116 H116       27.1264    0.7312  -12.0183 H         1 UNK         0.0850 
    117 H117       26.7091   -1.7455  -12.0810 H         1 UNK         0.0810 
    118 H118       25.5118   -0.8966  -11.1175 H         1 UNK         0.0810 
    119 H119       26.8005   -1.8013  -10.3247 H         1 UNK         0.0810 
    120 H120       29.1536   -0.8616   -9.5075 H         1 UNK         0.3040 
    121 H121       31.2683   -1.4591  -11.4833 H         1 UNK         0.0766 
    122 H122       32.3288   -2.5695   -9.4648 H         1 UNK         0.0812 
    123 H123       30.7468   -3.2008   -9.8937 H         1 UNK         0.0812 
    124 H124       30.9057   -2.1044   -8.5342 H         1 UNK         0.0812 
    125 H125       30.4464    1.2959   -9.8558 H         1 UNK         0.3205 
    126 H126       31.3650    3.2478   -9.4673 H         1 UNK         0.0754 
    127 H127       33.2061    4.0072  -10.9322 H         1 UNK         0.0769 
    128 H128       32.0707    3.0308  -11.8483 H         1 UNK         0.0769 
    129 H129       33.6154    2.3473  -11.3415 H         1 UNK         0.0769 
    130 H130       31.6687    1.7770   -7.3383 H         1 UNK         0.2981 
    131 H131       34.4085    2.0999   -6.2485 H         1 UNK         0.0541 
    132 H132       33.8605    4.9886   -4.2500 H         1 UNK         0.3459 
    133 H133       34.8699    3.5867   -4.4915 H         1 UNK         0.3459 
    134 H134       31.8455    0.9465   -5.0383 H         1 UNK         0.0612 
    135 H135       33.2597    1.2863   -4.0779 H         1 UNK         0.0612 
    136 H136       31.6991   -0.7783   -6.8326 H         1 UNK         0.0624 
    137 H137       32.7390   -2.1791   -6.9469 H         1 UNK         0.0624 
@<TRIPOS>BOND
     1    1    2 1    
     2    1   72 1    
     3    1   73 1    
     4    1   74 1    
     5    2    3 2    
     6    2    4 am   BACKBONE|DICT|INTERRES
     7    4    5 1    
     8    4   75 1    
     9    5    6 1    
    10    5   35 1    
    11    5   76 1    
    12    6    7 1    
    13    6   77 1    
    14    6   78 1    
    15    7    8 1    
    16    8    9 1    
    17    8   79 1    
    18    8   80 1    
    19    9   10 ar   
    20    9   14 ar   
    21   10   11 ar   
    22   10   81 1    
    23   11   12 ar   
    24   11   71 1    
    25   12   13 ar   
    26   12   82 1    
    27   13   14 ar   
    28   13   15 1    
    29   14   83 1    
    30   15   16 1    
    31   15   84 1    
    32   15   85 1    
    33   16   17 1    
    34   17   18 1    
    35   17   86 1    
    36   17   87 1    
    37   18   19 1    
    38   18   37 1    
    39   18   88 1    
    40   19   20 am   BACKBONE|DICT|INTERRES
    41   19   89 1    
    42   20   21 2    
    43   20   22 1    
    44   22   23 1    
    45   22   24 1    
    46   22   90 1    
    47   23   91 1    
    48   23   92 1    
    49   23   93 1    
    50   24   25 am   BACKBONE|DICT|INTERRES
    51   24   94 1    
    52   25   26 2    
    53   25   27 1    
    54   27   28 1    
    55   27   29 1    
    56   27   95 1    
    57   28   96 1    
    58   28   97 1    
    59   28   98 1    
    60   29   30 am   BACKBONE|DICT|INTERRES
    61   29   99 1    
    62   30   31 2    
    63   30   32 1    
    64   32   33 1    
    65   32   34 1    
    66   32  100 1    
    67   33  101 1    
    68   33  102 1    
    69   33  103 1    
    70   34   35 am   BACKBONE|DICT|INTERRES
    71   34  104 1    
    72   35   36 2    
    73   37   38 2    
    74   37   39 am   BACKBONE|DICT|INTERRES
    75   39   40 1    
    76   39  105 1    
    77   40   41 1    
    78   40   42 1    
    79   40  106 1    
    80   41  107 1    
    81   41  108 1    
    82   41  109 1    
    83   42   43 2    
    84   42   44 am   BACKBONE|DICT|INTERRES
    85   44   45 1    
    86   44  110 1    
    87   45   46 1    
    88   45   47 1    
    89   45  111 1    
    90   46  112 1    
    91   46  113 1    
    92   46  114 1    
    93   47   48 2    
    94   47   49 am   BACKBONE|DICT|INTERRES
    95   49   50 1    
    96   49  115 1    
    97   50   51 1    
    98   50   52 1    
    99   50  116 1    
   100   51  117 1    
   101   51  118 1    
   102   51  119 1    
   103   52   53 2    
   104   52   54 am   BACKBONE|DICT|INTERRES
   105   54   55 1    
   106   54  120 1    
   107   55   56 1    
   108   55   57 1    
   109   55  121 1    
   110   56  122 1    
   111   56  123 1    
   112   56  124 1    
   113   57   58 2    
   114   57   59 am   BACKBONE|DICT|INTERRES
   115   59   60 1    
   116   59  125 1    
   117   60   61 1    
   118   60   62 1    
   119   60  126 1    
   120   61  127 1    
   121   61  128 1    
   122   61  129 1    
   123   62   63 2    
   124   62   64 am   BACKBONE|DICT|INTERRES
   125   64   65 1    
   126   64  130 1    
   127   65   66 1    
   128   65   69 1    
   129   65  131 1    
   130   66   67 am   BACKBONE|DICT|INTERRES
   131   66   68 2    
   132   67  132 1    
   133   67  133 1    
   134   69   70 1    
   135   69  134 1    
   136   69  135 1    
   137   70   71 1    
   138   71  136 1    
   139   71  137 1    
@<TRIPOS>SUBSTRUCTURE
     1 UNK         1 GROUP             0       ****    0 ROOT    
