@<TRIPOS>MOLECULE
3R137
137   139    1
SMALL
USER_CHARGES


@<TRIPOS>ATOM
      1 CA         29.0405   -0.1752    2.2579 C.3       0 UNK        -0.2020 
      2 C          28.6630   -0.7990    0.9227 C.2       0 UNK         0.4855 
      3 O          28.3644   -0.0766   -0.0283 O.2       0 UNK        -0.5197 
      4 N          28.6839   -2.1347    0.8407 N.am      1 UNK        -0.4892 
      5 CA         28.3063   -2.9079   -0.3461 C.3       1 UNK         0.0835 
      6 C6         28.7602   -4.3869   -0.2290 C.3       12 UNK        -0.0855 
      7 S7         30.5566   -4.6788    0.0039 S.3       12 UNK        -0.2931 
      8 C8         31.4269   -3.3513   -0.9075 C.3       12 UNK         0.0378 
      9 C9         31.6441   -3.6552   -2.3891 C.ar      12 UNK        -0.0802 
     10 C10        32.9150   -3.4818   -2.9460 C.ar      12 UNK        -0.0944 
     11 C11        33.1417   -3.7300   -4.3022 C.ar      12 UNK        -0.0787 
     12 C12        32.0862   -4.1673   -5.1072 C.ar      12 UNK        -0.0862 
     13 C13        30.8011   -4.3150   -4.5785 C.ar      12 UNK        -0.0733 
     14 C14        30.5931   -4.0662   -3.2169 C.ar      12 UNK        -0.0832 
     15 C15        29.6556   -4.7482   -5.4933 C.3       12 UNK         0.0240 
     16 S16        28.0728   -3.8976   -5.1625 S.3       12 UNK        -0.2522 
     17 C17        28.5013   -2.1538   -5.4883 C.3       12 UNK        -0.0967 
     18 CA         27.7711   -1.5595   -6.7190 C.3       5 UNK         0.0660 
     19 N          26.3175   -1.7407   -6.6785 N.am      5 UNK        -0.4015 
     20 C          25.5047   -1.5892   -7.7349 C.2       4 UNK         0.4946 
     21 O          25.9007   -1.3488   -8.8749 O.2       4 UNK        -0.5353 
     22 CA         23.9902   -1.6976   -7.4813 C.3       4 UNK         0.0277 
     23 CB         23.5251   -3.1558   -7.6229 C.3       4 UNK        -0.1981 
     24 N          23.5819   -1.1809   -6.1730 N.am      4 UNK        -0.4209 
     25 C          23.6993    0.0977   -5.7856 C.2       3 UNK         0.4942 
     26 O          24.1089    0.9993   -6.5141 O.2       3 UNK        -0.5208 
     27 CA         23.3587    0.4162   -4.3196 C.3       3 UNK         0.0250 
     28 CB         21.8768    0.7993   -4.1827 C.3       3 UNK        -0.1990 
     29 N          23.6747   -0.6739   -3.3888 N.am      3 UNK        -0.4232 
     30 C          24.8933   -1.2041   -3.2162 C.2       2 UNK         0.4993 
     31 O          25.8955   -0.8457   -3.8437 O.2       2 UNK        -0.5286 
     32 CA         24.9902   -2.3700   -2.2285 C.3       2 UNK         0.0209 
     33 CB         24.5126   -3.6788   -2.8832 C.3       2 UNK        -0.1931 
     34 N          26.3805   -2.5225   -1.8135 N.am      2 UNK        -0.4546 
     35 C          26.7845   -2.8284   -0.5768 C.2       1 UNK         0.5154 
     36 O          26.0154   -3.0645    0.3590 O.2       1 UNK        -0.5181 
     37 C          28.1037   -0.0655   -6.8638 C.2       5 UNK         0.5014 
     38 O          28.9020    0.2990   -7.7252 O.2       5 UNK        -0.5248 
     39 N          27.4522    0.7726   -6.0412 N.am      6 UNK        -0.4434 
     40 CA         27.6033    2.2293   -6.0452 C.3       6 UNK         0.0363 
     41 CB         26.7851    2.8424   -4.8986 C.3       6 UNK        -0.1936 
     42 C          27.2288    2.8658   -7.3942 C.2       6 UNK         0.5081 
     43 O          28.0041    3.6668   -7.9182 O.2       6 UNK        -0.5248 
     44 N          26.0824    2.4554   -7.9565 N.am      7 UNK        -0.4718 
     45 CA         25.5813    2.8785   -9.2692 C.3       7 UNK         0.0273 
     46 CB         24.1557    2.3394   -9.4658 C.3       7 UNK        -0.1935 
     47 C          26.4768    2.4542  -10.4468 C.2       7 UNK         0.5018 
     48 O          26.4803    3.1344  -11.4730 O.2       7 UNK        -0.5186 
     49 N          27.2412    1.3681  -10.2725 N.am      8 UNK        -0.4240 
     50 CA         28.2528    0.8881  -11.2164 C.3       8 UNK         0.0235 
     51 CB         28.3689   -0.6414  -11.0853 C.3       8 UNK        -0.2000 
     52 C          29.6216    1.5809  -11.0413 C.2       8 UNK         0.4941 
     53 O          30.5833    1.1424  -11.6728 O.2       8 UNK        -0.5273 
     54 N          29.6813    2.6374  -10.2139 N.am      9 UNK        -0.4262 
     55 CA         30.8445    3.4238   -9.7968 C.3       9 UNK         0.0264 
     56 CB         31.7053    3.9087  -10.9836 C.3       9 UNK        -0.1955 
     57 C          31.6513    2.6684   -8.7321 C.2       9 UNK         0.5031 
     58 O          32.6056    1.9593   -9.0630 O.2       9 UNK        -0.5390 
     59 N          31.2333    2.8411   -7.4695 N.am      10 UNK        -0.4204 
     60 CA         31.8137    2.3209   -6.2215 C.3       10 UNK         0.0237 
     61 CB         33.2346    2.8732   -5.9854 C.3       10 UNK        -0.1985 
     62 C          31.7721    0.7882   -6.0978 C.2       10 UNK         0.4970 
     63 O          31.1007    0.2776   -5.2010 O.2       10 UNK        -0.4914 
     64 N          32.4830    0.1018   -6.9953 N.am      11 UNK        -0.4285 
     65 CA         32.4518   -1.3533   -7.1792 C.3       11 UNK         0.1007 
     66 C          31.7054   -1.7675   -8.4754 C.2       11 UNK         0.5703 
     67 N          31.5676   -0.8998   -9.4702 N.am      11 UNK        -0.7361 
     68 O          31.2454   -2.9017   -8.5781 O.2       11 UNK        -0.4986 
     69 C69        33.8763   -1.9681   -7.1693 C.3       12 UNK        -0.0947 
     70 S70        34.7128   -1.8239   -5.5550 S.3       12 UNK        -0.2240 
     71 C71        34.5268   -3.5116   -4.8927 C.3       12 UNK         0.0194 
     72 H72        28.2099    0.4151    2.6440 H         1 UNK         0.0906 
     73 H73        29.8991    0.4844    2.1344 H         1 UNK         0.0906 
     74 H74        29.2964   -0.9285    3.0028 H         1 UNK         0.0906 
     75 H75        28.9213   -2.6817    1.6562 H         1 UNK         0.3140 
     76 H76        28.7845   -2.4560   -1.2163 H         1 UNK         0.1085 
     77 H77        28.2539   -4.8594    0.6155 H         1 UNK         0.0836 
     78 H78        28.4374   -4.9573   -1.1015 H         1 UNK         0.0836 
     79 H79        30.9398   -2.3851   -0.7920 H         1 UNK         0.0731 
     80 H80        32.3960   -3.2331   -0.4203 H         1 UNK         0.0731 
     81 H81        33.7331   -3.1415   -2.3256 H         1 UNK         0.1312 
     82 H82        32.2598   -4.3643   -6.1564 H         1 UNK         0.1406 
     83 H83        29.6034   -4.1880   -2.8099 H         1 UNK         0.1631 
     84 H84        29.5056   -5.8222   -5.3775 H         1 UNK         0.0717 
     85 H85        29.9184   -4.5826   -6.5397 H         1 UNK         0.0717 
     86 H86        28.2784   -1.5852   -4.5845 H         1 UNK         0.0934 
     87 H87        29.5801   -2.0640   -5.6254 H         1 UNK         0.0934 
     88 H88        28.1482   -2.0704   -7.6081 H         1 UNK         0.0739 
     89 H89        25.9176   -1.8830   -5.7607 H         1 UNK         0.3093 
     90 H90        23.4870   -1.1009   -8.2453 H         1 UNK         0.0818 
     91 H91        23.7976   -3.5575   -8.6000 H         1 UNK         0.0819 
     92 H92        23.9773   -3.8009   -6.8684 H         1 UNK         0.0819 
     93 H93        22.4419   -3.2384   -7.5321 H         1 UNK         0.0819 
     94 H94        23.2235   -1.8500   -5.5080 H         1 UNK         0.3041 
     95 H95        23.9614    1.2780   -4.0264 H         1 UNK         0.0784 
     96 H96        21.6242    1.6234   -4.8517 H         1 UNK         0.0793 
     97 H97        21.2178   -0.0342   -4.4294 H         1 UNK         0.0793 
     98 H98        21.6425    1.1254   -3.1692 H         1 UNK         0.0793 
     99 H99        22.9047   -1.0348   -2.8432 H         1 UNK         0.3024 
    100 H100       24.3631   -2.1378   -1.3642 H         1 UNK         0.1171 
    101 H101       23.4707   -3.6086   -3.1980 H         1 UNK         0.0786 
    102 H102       25.1062   -3.9296   -3.7636 H         1 UNK         0.0786 
    103 H103       24.5817   -4.5152   -2.1874 H         1 UNK         0.0786 
    104 H104       27.0538   -2.2559   -2.5204 H         1 UNK         0.2977 
    105 H105       26.8174    0.3774   -5.3558 H         1 UNK         0.3127 
    106 H106       28.6572    2.4423   -5.8586 H         1 UNK         0.0770 
    107 H107       25.7161    2.6737   -5.0278 H         1 UNK         0.0814 
    108 H108       26.9390    3.9210   -4.8457 H         1 UNK         0.0814 
    109 H109       27.0766    2.4253   -3.9343 H         1 UNK         0.0814 
    110 H110       25.4826    1.8206   -7.4310 H         1 UNK         0.2983 
    111 H111       25.5401    3.9698   -9.2706 H         1 UNK         0.0947 
    112 H112       24.1325    1.2490   -9.4389 H         1 UNK         0.0806 
    113 H113       23.7456    2.6530  -10.4268 H         1 UNK         0.0806 
    114 H114       23.4825    2.7070   -8.6911 H         1 UNK         0.0806 
    115 H115       27.1823    0.8714   -9.3922 H         1 UNK         0.3000 
    116 H116       27.9197    1.1079  -12.2328 H         1 UNK         0.0850 
    117 H117       29.0756   -1.0494  -11.8087 H         1 UNK         0.0810 
    118 H118       27.4093   -1.1262  -11.2659 H         1 UNK         0.0810 
    119 H119       28.7066   -0.9368  -10.0918 H         1 UNK         0.0810 
    120 H120       28.8324    2.8681   -9.7099 H         1 UNK         0.3040 
    121 H121       30.4381    4.3203   -9.3251 H         1 UNK         0.0766 
    122 H122       32.2294    3.0914  -11.4792 H         1 UNK         0.0812 
    123 H123       32.4665    4.6109  -10.6422 H         1 UNK         0.0812 
    124 H124       31.0999    4.4221  -11.7304 H         1 UNK         0.0812 
    125 H125       30.3892    3.3858   -7.3472 H         1 UNK         0.3205 
    126 H126       31.1833    2.7109   -5.4207 H         1 UNK         0.0754 
    127 H127       33.6357    2.5198   -5.0345 H         1 UNK         0.0769 
    128 H128       33.2331    3.9627   -5.9508 H         1 UNK         0.0769 
    129 H129       33.9331    2.5665   -6.7645 H         1 UNK         0.0769 
    130 H130       32.9234    0.6393   -7.7358 H         1 UNK         0.2981 
    131 H131       31.8874   -1.7991   -6.3612 H         1 UNK         0.0541 
    132 H132       31.9167    0.0477   -9.3977 H         1 UNK         0.3459 
    133 H133       31.0820   -1.1803  -10.3057 H         1 UNK         0.3459 
    134 H134       34.5018   -1.4769   -7.9167 H         1 UNK         0.0612 
    135 H135       33.8495   -3.0210   -7.4548 H         1 UNK         0.0612 
    136 H136       35.2844   -3.6660   -4.1229 H         1 UNK         0.0624 
    137 H137       34.7350   -4.2486   -5.6696 H         1 UNK         0.0624 
@<TRIPOS>BOND
     1    1    2 1    
     2    1   72 1    
     3    1   73 1    
     4    1   74 1    
     5    2    3 2    
     6    2    4 am   BACKBONE|DICT|INTERRES
     7    4    5 1    
     8    4   75 1    
     9    5    6 1    
    10    5   35 1    
    11    5   76 1    
    12    6    7 1    
    13    6   77 1    
    14    6   78 1    
    15    7    8 1    
    16    8    9 1    
    17    8   79 1    
    18    8   80 1    
    19    9   10 ar   
    20    9   14 ar   
    21   10   11 ar   
    22   10   81 1    
    23   11   12 ar   
    24   11   71 1    
    25   12   13 ar   
    26   12   82 1    
    27   13   14 ar   
    28   13   15 1    
    29   14   83 1    
    30   15   16 1    
    31   15   84 1    
    32   15   85 1    
    33   16   17 1    
    34   17   18 1    
    35   17   86 1    
    36   17   87 1    
    37   18   19 1    
    38   18   37 1    
    39   18   88 1    
    40   19   20 am   BACKBONE|DICT|INTERRES
    41   19   89 1    
    42   20   21 2    
    43   20   22 1    
    44   22   23 1    
    45   22   24 1    
    46   22   90 1    
    47   23   91 1    
    48   23   92 1    
    49   23   93 1    
    50   24   25 am   BACKBONE|DICT|INTERRES
    51   24   94 1    
    52   25   26 2    
    53   25   27 1    
    54   27   28 1    
    55   27   29 1    
    56   27   95 1    
    57   28   96 1    
    58   28   97 1    
    59   28   98 1    
    60   29   30 am   BACKBONE|DICT|INTERRES
    61   29   99 1    
    62   30   31 2    
    63   30   32 1    
    64   32   33 1    
    65   32   34 1    
    66   32  100 1    
    67   33  101 1    
    68   33  102 1    
    69   33  103 1    
    70   34   35 am   BACKBONE|DICT|INTERRES
    71   34  104 1    
    72   35   36 2    
    73   37   38 2    
    74   37   39 am   BACKBONE|DICT|INTERRES
    75   39   40 1    
    76   39  105 1    
    77   40   41 1    
    78   40   42 1    
    79   40  106 1    
    80   41  107 1    
    81   41  108 1    
    82   41  109 1    
    83   42   43 2    
    84   42   44 am   BACKBONE|DICT|INTERRES
    85   44   45 1    
    86   44  110 1    
    87   45   46 1    
    88   45   47 1    
    89   45  111 1    
    90   46  112 1    
    91   46  113 1    
    92   46  114 1    
    93   47   48 2    
    94   47   49 am   BACKBONE|DICT|INTERRES
    95   49   50 1    
    96   49  115 1    
    97   50   51 1    
    98   50   52 1    
    99   50  116 1    
   100   51  117 1    
   101   51  118 1    
   102   51  119 1    
   103   52   53 2    
   104   52   54 am   BACKBONE|DICT|INTERRES
   105   54   55 1    
   106   54  120 1    
   107   55   56 1    
   108   55   57 1    
   109   55  121 1    
   110   56  122 1    
   111   56  123 1    
   112   56  124 1    
   113   57   58 2    
   114   57   59 am   BACKBONE|DICT|INTERRES
   115   59   60 1    
   116   59  125 1    
   117   60   61 1    
   118   60   62 1    
   119   60  126 1    
   120   61  127 1    
   121   61  128 1    
   122   61  129 1    
   123   62   63 2    
   124   62   64 am   BACKBONE|DICT|INTERRES
   125   64   65 1    
   126   64  130 1    
   127   65   66 1    
   128   65   69 1    
   129   65  131 1    
   130   66   67 am   BACKBONE|DICT|INTERRES
   131   66   68 2    
   132   67  132 1    
   133   67  133 1    
   134   69   70 1    
   135   69  134 1    
   136   69  135 1    
   137   70   71 1    
   138   71  136 1    
   139   71  137 1    
@<TRIPOS>SUBSTRUCTURE
     1 UNK         1 GROUP             0       ****    0 ROOT    
