@<TRIPOS>MOLECULE
3R137
137   139    1
SMALL
USER_CHARGES


@<TRIPOS>ATOM
      1 CA         28.9073    1.1958    0.9065 C.3       0 UNK        -0.2020 
      2 C          28.1463   -0.0377    0.4440 C.2       0 UNK         0.4855 
      3 O          27.2003   -0.4545    1.1120 O.2       0 UNK        -0.5197 
      4 N          28.5481   -0.6094   -0.7014 N.am      1 UNK        -0.4892 
      5 CA         28.0053   -1.8372   -1.3171 C.3       1 UNK         0.0835 
      6 C6         28.1421   -3.1036   -0.4188 C.3       12 UNK        -0.0855 
      7 S7         29.8208   -3.3308    0.2732 S.3       12 UNK        -0.2931 
      8 C8         30.5117   -4.6458   -0.7820 C.3       12 UNK         0.0378 
      9 C9         30.5875   -4.2365   -2.2465 C.ar      12 UNK        -0.0802 
     10 C10        31.3528   -3.1311   -2.6346 C.ar      12 UNK        -0.0944 
     11 C11        31.4059   -2.7427   -3.9758 C.ar      12 UNK        -0.0787 
     12 C12        30.6986   -3.4756   -4.9313 C.ar      12 UNK        -0.0862 
     13 C13        29.9542   -4.5991   -4.5624 C.ar      12 UNK        -0.0733 
     14 C14        29.8991   -4.9721   -3.2163 C.ar      12 UNK        -0.0832 
     15 C15        29.2412   -5.4265   -5.6240 C.3       12 UNK         0.0240 
     16 S16        27.4401   -5.5308   -5.3670 S.3       12 UNK        -0.2522 
     17 C17        26.9043   -3.7890   -5.4210 C.3       12 UNK        -0.0967 
     18 CA         26.2226   -3.4145   -6.7707 C.3       5 UNK         0.0660 
     19 N          24.8886   -2.8693   -6.5328 N.am      5 UNK        -0.4015 
     20 C          23.7427   -3.3229   -7.0564 C.2       4 UNK         0.4946 
     21 O          23.6720   -4.2884   -7.8189 O.2       4 UNK        -0.5353 
     22 CA         22.4406   -2.5985   -6.6554 C.3       4 UNK         0.0277 
     23 CB         21.6380   -3.4508   -5.6580 C.3       4 UNK        -0.1981 
     24 N          22.6736   -1.2775   -6.0681 N.am      4 UNK        -0.4209 
     25 C          23.0613   -0.1961   -6.7569 C.2       3 UNK         0.4942 
     26 O          23.1033   -0.1551   -7.9865 O.2       3 UNK        -0.5208 
     27 CA         23.4879    1.0458   -5.9490 C.3       3 UNK         0.0250 
     28 CB         22.4595    2.1772   -6.1137 C.3       3 UNK        -0.1990 
     29 N          23.7253    0.8185   -4.5170 N.am      3 UNK        -0.4232 
     30 C          24.6803    0.0347   -3.9957 C.2       2 UNK         0.4993 
     31 O          25.4161   -0.6844   -4.6743 O.2       2 UNK        -0.5286 
     32 CA         24.8040    0.0731   -2.4637 C.3       2 UNK         0.0209 
     33 CB         23.6211   -0.6461   -1.7802 C.3       2 UNK        -0.1931 
     34 N          26.1018   -0.4108   -1.9709 N.am      2 UNK        -0.4546 
     35 C          26.5649   -1.6677   -1.8670 C.2       1 UNK         0.5154 
     36 O          25.9168   -2.6685   -2.1756 O.2       1 UNK        -0.5181 
     37 C          27.0543   -2.3896   -7.5670 C.2       5 UNK         0.5014 
     38 O          26.6119   -1.2607   -7.8015 O.2       5 UNK        -0.5248 
     39 N          28.2855   -2.7828   -7.9276 N.am      6 UNK        -0.4434 
     40 CA         29.2721   -1.9628   -8.6471 C.3       6 UNK         0.0363 
     41 CB         30.4822   -2.8257   -9.0431 C.3       6 UNK        -0.1936 
     42 C          29.7253   -0.6818   -7.9174 C.2       6 UNK         0.5081 
     43 O          30.4062    0.1421   -8.5271 O.2       6 UNK        -0.5248 
     44 N          29.3015   -0.4809   -6.6606 N.am      7 UNK        -0.4718 
     45 CA         29.3990    0.7863   -5.9267 C.3       7 UNK         0.0273 
     46 CB         28.8543    0.5957   -4.5029 C.3       7 UNK        -0.1935 
     47 C          28.6918    1.9587   -6.6374 C.2       7 UNK         0.5018 
     48 O          29.1213    3.1001   -6.4707 O.2       7 UNK        -0.5186 
     49 N          27.6955    1.6574   -7.4880 N.am      8 UNK        -0.4240 
     50 CA         27.0894    2.5929   -8.4445 C.3       8 UNK         0.0235 
     51 CB         25.9598    1.8776   -9.2025 C.3       8 UNK        -0.2000 
     52 C          28.0888    3.1916   -9.4569 C.2       8 UNK         0.4941 
     53 O          27.8661    4.3057   -9.9310 O.2       8 UNK        -0.5273 
     54 N          29.1701    2.4576   -9.7536 N.am      9 UNK        -0.4262 
     55 CA         30.2867    2.8693  -10.6047 C.3       9 UNK         0.0264 
     56 CB         30.4763    1.8135  -11.7100 C.3       9 UNK        -0.1955 
     57 C          31.5671    3.0609   -9.7678 C.2       9 UNK         0.5031 
     58 O          32.6682    2.8642  -10.2865 O.2       9 UNK        -0.5390 
     59 N          31.4083    3.4073   -8.4790 N.am      10 UNK        -0.4204 
     60 CA         32.4614    3.6423   -7.4815 C.3       10 UNK         0.0237 
     61 CB         33.2427    4.9311   -7.8163 C.3       10 UNK        -0.1985 
     62 C          33.3885    2.4310   -7.2452 C.2       10 UNK         0.4970 
     63 O          34.5499    2.6170   -6.8784 O.2       10 UNK        -0.4914 
     64 N          32.8619    1.2165   -7.4547 N.am      11 UNK        -0.4285 
     65 CA         33.5803   -0.0638   -7.3862 C.3       11 UNK         0.1007 
     66 C          34.5744   -0.3072   -8.5627 C.2       11 UNK         0.5703 
     67 N          34.5333    0.4706   -9.6401 N.am      11 UNK        -0.7361 
     68 O          35.3773   -1.2361   -8.5181 O.2       11 UNK        -0.4986 
     69 C69        34.1801   -0.3480   -5.9718 C.3       12 UNK        -0.0947 
     70 S70        33.7015   -1.9859   -5.3320 S.3       12 UNK        -0.2240 
     71 C71        32.2098   -1.5243   -4.3999 C.3       12 UNK         0.0194 
     72 H72        29.3534    1.0144    1.8841 H         1 UNK         0.0906 
     73 H73        29.7054    1.4681    0.2161 H         1 UNK         0.0906 
     74 H74        28.2298    2.0448    0.9938 H         1 UNK         0.0906 
     75 H75        29.3403   -0.2106   -1.1857 H         1 UNK         0.3140 
     76 H76        28.6165   -2.0127   -2.2036 H         1 UNK         0.1085 
     77 H77        27.8676   -3.9998   -0.9785 H         1 UNK         0.0836 
     78 H78        27.4422   -3.0516    0.4168 H         1 UNK         0.0836 
     79 H79        29.9151   -5.5508   -0.6565 H         1 UNK         0.0731 
     80 H80        31.5154   -4.8890   -0.4307 H         1 UNK         0.0731 
     81 H81        31.8933   -2.5668   -1.8867 H         1 UNK         0.1312 
     82 H82        30.7499   -3.1746   -5.9660 H         1 UNK         0.1406 
     83 H83        29.3181   -5.8382   -2.9286 H         1 UNK         0.1631 
     84 H84        29.6501   -6.4378   -5.6075 H         1 UNK         0.0717 
     85 H85        29.4415   -5.0407   -6.6233 H         1 UNK         0.0717 
     86 H86        26.2009   -3.6736   -4.5948 H         1 UNK         0.0934 
     87 H87        27.7290   -3.1254   -5.1558 H         1 UNK         0.0934 
     88 H88        26.1412   -4.2999   -7.4046 H         1 UNK         0.0739 
     89 H89        24.8795   -2.0269   -5.9629 H         1 UNK         0.3093 
     90 H90        21.8427   -2.4746   -7.5610 H         1 UNK         0.0818 
     91 H91        22.1867   -3.6094   -4.7286 H         1 UNK         0.0819 
     92 H92        20.6849   -2.9827   -5.4115 H         1 UNK         0.0819 
     93 H93        21.4152   -4.4337   -6.0757 H         1 UNK         0.0819 
     94 H94        22.6541   -1.2159   -5.0609 H         1 UNK         0.3041 
     95 H95        24.4352    1.3842   -6.3717 H         1 UNK         0.0784 
     96 H96        22.2922    2.4039   -7.1678 H         1 UNK         0.0793 
     97 H97        21.4945    1.9110   -5.6807 H         1 UNK         0.0793 
     98 H98        22.8005    3.0976   -5.6393 H         1 UNK         0.0793 
     99 H99        23.1496    1.3580   -3.8859 H         1 UNK         0.3024 
    100 H100       24.7643    1.1242   -2.1720 H         1 UNK         0.1171 
    101 H101       23.5190   -1.6783   -2.1167 H         1 UNK         0.0786 
    102 H102       22.6769   -0.1450   -1.9960 H         1 UNK         0.0786 
    103 H103       23.7373   -0.6574   -0.6963 H         1 UNK         0.0786 
    104 H104       26.7449    0.3145   -1.6873 H         1 UNK         0.2977 
    105 H105       28.5615   -3.7303   -7.7176 H         1 UNK         0.3127 
    106 H106       28.7915   -1.6271   -9.5685 H         1 UNK         0.0770 
    107 H107       31.0211   -3.2087   -8.1780 H         1 UNK         0.0814 
    108 H108       31.1950   -2.2479   -9.6339 H         1 UNK         0.0814 
    109 H109       30.1801   -3.6762   -9.6543 H         1 UNK         0.0814 
    110 H110       28.7187   -1.1919   -6.2463 H         1 UNK         0.2983 
    111 H111       30.4555    1.0498   -5.8547 H         1 UNK         0.0947 
    112 H112       27.7995    0.3253   -4.5111 H         1 UNK         0.0806 
    113 H113       28.9507    1.5142   -3.9223 H         1 UNK         0.0806 
    114 H114       29.3965   -0.1840   -3.9687 H         1 UNK         0.0806 
    115 H115       27.3911    0.6901   -7.5492 H         1 UNK         0.3000 
    116 H116       26.6603    3.4195   -7.8745 H         1 UNK         0.0850 
    117 H117       25.4719    2.5512   -9.9084 H         1 UNK         0.0810 
    118 H118       25.1909    1.5116   -8.5259 H         1 UNK         0.0810 
    119 H119       26.3328    1.0234   -9.7693 H         1 UNK         0.0810 
    120 H120       29.3018    1.5645   -9.2878 H         1 UNK         0.3040 
    121 H121       30.0724    3.8283  -11.0803 H         1 UNK         0.0766 
    122 H122       29.5623    1.6764  -12.2879 H         1 UNK         0.0812 
    123 H123       30.7598    0.8451  -11.2951 H         1 UNK         0.0812 
    124 H124       31.2581    2.1115  -12.4099 H         1 UNK         0.0812 
    125 H125       30.4619    3.5048   -8.1278 H         1 UNK         0.3205 
    126 H126       31.9452    3.8080   -6.5347 H         1 UNK         0.0754 
    127 H127       33.9290    5.1963   -7.0112 H         1 UNK         0.0769 
    128 H128       32.5701    5.7774   -7.9562 H         1 UNK         0.0769 
    129 H129       33.8349    4.8194   -8.7252 H         1 UNK         0.0769 
    130 H130       31.9168    1.1432   -7.8180 H         1 UNK         0.2981 
    131 H131       32.7949   -0.7967   -7.5698 H         1 UNK         0.0541 
    132 H132       33.8765    1.2396   -9.7088 H         1 UNK         0.3459 
    133 H133       35.1744    0.2932  -10.3965 H         1 UNK         0.3459 
    134 H134       35.2692   -0.2780   -5.9757 H         1 UNK         0.0612 
    135 H135       33.8547    0.3988   -5.2462 H         1 UNK         0.0612 
    136 H136       31.5864   -0.8878   -5.0255 H         1 UNK         0.0624 
    137 H137       32.4965   -0.9256   -3.5340 H         1 UNK         0.0624 
@<TRIPOS>BOND
     1    1    2 1    
     2    1   72 1    
     3    1   73 1    
     4    1   74 1    
     5    2    3 2    
     6    2    4 am   BACKBONE|DICT|INTERRES
     7    4    5 1    
     8    4   75 1    
     9    5    6 1    
    10    5   35 1    
    11    5   76 1    
    12    6    7 1    
    13    6   77 1    
    14    6   78 1    
    15    7    8 1    
    16    8    9 1    
    17    8   79 1    
    18    8   80 1    
    19    9   10 ar   
    20    9   14 ar   
    21   10   11 ar   
    22   10   81 1    
    23   11   12 ar   
    24   11   71 1    
    25   12   13 ar   
    26   12   82 1    
    27   13   14 ar   
    28   13   15 1    
    29   14   83 1    
    30   15   16 1    
    31   15   84 1    
    32   15   85 1    
    33   16   17 1    
    34   17   18 1    
    35   17   86 1    
    36   17   87 1    
    37   18   19 1    
    38   18   37 1    
    39   18   88 1    
    40   19   20 am   BACKBONE|DICT|INTERRES
    41   19   89 1    
    42   20   21 2    
    43   20   22 1    
    44   22   23 1    
    45   22   24 1    
    46   22   90 1    
    47   23   91 1    
    48   23   92 1    
    49   23   93 1    
    50   24   25 am   BACKBONE|DICT|INTERRES
    51   24   94 1    
    52   25   26 2    
    53   25   27 1    
    54   27   28 1    
    55   27   29 1    
    56   27   95 1    
    57   28   96 1    
    58   28   97 1    
    59   28   98 1    
    60   29   30 am   BACKBONE|DICT|INTERRES
    61   29   99 1    
    62   30   31 2    
    63   30   32 1    
    64   32   33 1    
    65   32   34 1    
    66   32  100 1    
    67   33  101 1    
    68   33  102 1    
    69   33  103 1    
    70   34   35 am   BACKBONE|DICT|INTERRES
    71   34  104 1    
    72   35   36 2    
    73   37   38 2    
    74   37   39 am   BACKBONE|DICT|INTERRES
    75   39   40 1    
    76   39  105 1    
    77   40   41 1    
    78   40   42 1    
    79   40  106 1    
    80   41  107 1    
    81   41  108 1    
    82   41  109 1    
    83   42   43 2    
    84   42   44 am   BACKBONE|DICT|INTERRES
    85   44   45 1    
    86   44  110 1    
    87   45   46 1    
    88   45   47 1    
    89   45  111 1    
    90   46  112 1    
    91   46  113 1    
    92   46  114 1    
    93   47   48 2    
    94   47   49 am   BACKBONE|DICT|INTERRES
    95   49   50 1    
    96   49  115 1    
    97   50   51 1    
    98   50   52 1    
    99   50  116 1    
   100   51  117 1    
   101   51  118 1    
   102   51  119 1    
   103   52   53 2    
   104   52   54 am   BACKBONE|DICT|INTERRES
   105   54   55 1    
   106   54  120 1    
   107   55   56 1    
   108   55   57 1    
   109   55  121 1    
   110   56  122 1    
   111   56  123 1    
   112   56  124 1    
   113   57   58 2    
   114   57   59 am   BACKBONE|DICT|INTERRES
   115   59   60 1    
   116   59  125 1    
   117   60   61 1    
   118   60   62 1    
   119   60  126 1    
   120   61  127 1    
   121   61  128 1    
   122   61  129 1    
   123   62   63 2    
   124   62   64 am   BACKBONE|DICT|INTERRES
   125   64   65 1    
   126   64  130 1    
   127   65   66 1    
   128   65   69 1    
   129   65  131 1    
   130   66   67 am   BACKBONE|DICT|INTERRES
   131   66   68 2    
   132   67  132 1    
   133   67  133 1    
   134   69   70 1    
   135   69  134 1    
   136   69  135 1    
   137   70   71 1    
   138   71  136 1    
   139   71  137 1    
@<TRIPOS>SUBSTRUCTURE
     1 UNK         1 GROUP             0       ****    0 ROOT    
