@<TRIPOS>MOLECULE
3R137
137   139    1
SMALL
USER_CHARGES


@<TRIPOS>ATOM
      1 CA         29.9227    1.8103   -2.6069 C.3       0 UNK        -0.2020 
      2 C          30.6211    1.3695   -1.3210 C.2       0 UNK         0.4855 
      3 O          31.5468    2.0452   -0.8770 O.2       0 UNK        -0.5197 
      4 N          30.2337    0.2527   -0.6880 N.am      1 UNK        -0.4892 
      5 CA         29.0930   -0.6105   -1.0177 C.3       1 UNK         0.0835 
      6 C6         29.3239   -2.0562   -0.4978 C.3       12 UNK        -0.0855 
      7 S7         28.3178   -3.3170   -1.3686 S.3       12 UNK        -0.2931 
      8 C8         29.5456   -4.5293   -1.9534 C.3       12 UNK         0.0378 
      9 C9         29.7071   -4.4806   -3.4657 C.ar      12 UNK        -0.0802 
     10 C10        30.8145   -3.8531   -4.0435 C.ar      12 UNK        -0.0944 
     11 C11        30.9877   -3.8433   -5.4359 C.ar      12 UNK        -0.0787 
     12 C12        30.0258   -4.4676   -6.2418 C.ar      12 UNK        -0.0862 
     13 C13        28.9177   -5.1075   -5.6755 C.ar      12 UNK        -0.0733 
     14 C14        28.7633   -5.1046   -4.2867 C.ar      12 UNK        -0.0832 
     15 C15        27.9272   -5.8743   -6.5444 C.3       12 UNK         0.0240 
     16 S16        26.3381   -5.0015   -6.7490 S.3       12 UNK        -0.2522 
     17 C17        26.3977   -4.4408   -8.4931 C.3       12 UNK        -0.0967 
     18 CA         26.2087   -2.9149   -8.6850 C.3       5 UNK         0.0660 
     19 N          24.9664   -2.4205   -8.0842 N.am      5 UNK        -0.4015 
     20 C          24.4798   -1.1810   -8.2433 C.2       4 UNK         0.4946 
     21 O          24.9881   -0.3325   -8.9755 O.2       4 UNK        -0.5353 
     22 CA         23.2471   -0.8053   -7.4048 C.3       4 UNK         0.0277 
     23 CB         21.9550   -1.1922   -8.1417 C.3       4 UNK        -0.1981 
     24 N          23.2480   -1.3970   -6.0619 N.am      4 UNK        -0.4209 
     25 C          24.1771   -1.1612   -5.1258 C.2       3 UNK         0.4942 
     26 O          25.1639   -0.4397   -5.2969 O.2       3 UNK        -0.5208 
     27 CA         23.9982   -1.8902   -3.7923 C.3       3 UNK         0.0250 
     28 CB         24.5846   -3.3122   -3.8654 C.3       3 UNK        -0.1990 
     29 N          24.6858   -1.1350   -2.7507 N.am      3 UNK        -0.4232 
     30 C          24.3443   -1.1054   -1.4571 C.2       2 UNK         0.4993 
     31 O          23.3751   -1.7093   -0.9932 O.2       2 UNK        -0.5286 
     32 CA         25.2758   -0.3097   -0.5290 C.3       2 UNK         0.0209 
     33 CB         24.9614   -0.5169    0.9682 C.3       2 UNK        -0.1931 
     34 N          26.6558   -0.6941   -0.8195 N.am      2 UNK        -0.4546 
     35 C          27.7562    0.0048   -0.5321 C.2       1 UNK         0.5154 
     36 O          27.7371    1.0852    0.0633 O.2       1 UNK        -0.5181 
     37 C          27.4395   -2.1277   -8.2010 C.2       5 UNK         0.5014 
     38 O          28.2956   -1.7796   -9.0132 O.2       5 UNK        -0.5248 
     39 N          27.4839   -1.8347   -6.8953 N.am      6 UNK        -0.4434 
     40 CA         28.5587   -1.0871   -6.2550 C.3       6 UNK         0.0363 
     41 CB         28.4556   -1.2428   -4.7342 C.3       6 UNK        -0.1936 
     42 C          28.5449    0.3928   -6.6522 C.2       6 UNK         0.5081 
     43 O          29.6117    0.9708   -6.8582 O.2       6 UNK        -0.5248 
     44 N          27.3414    0.9673   -6.7810 N.am      7 UNK        -0.4718 
     45 CA         27.1203    2.3207   -7.2893 C.3       7 UNK         0.0273 
     46 CB         25.6487    2.7154   -7.0890 C.3       7 UNK        -0.1935 
     47 C          27.5381    2.4626   -8.7626 C.2       7 UNK         0.5018 
     48 O          28.2206    3.4294   -9.1008 O.2       7 UNK        -0.5186 
     49 N          27.1589    1.4838   -9.5988 N.am      8 UNK        -0.4240 
     50 CA         27.5319    1.4052  -11.0143 C.3       8 UNK         0.0235 
     51 CB         26.7318    0.2870  -11.7017 C.3       8 UNK        -0.2000 
     52 C          29.0414    1.2035  -11.2288 C.2       8 UNK         0.4941 
     53 O          29.6197    1.8591  -12.0962 O.2       8 UNK        -0.5273 
     54 N          29.6550    0.3192  -10.4295 N.am      9 UNK        -0.4262 
     55 CA         31.0957    0.0488  -10.4403 C.3       9 UNK         0.0264 
     56 CB         31.3659   -1.2574   -9.6757 C.3       9 UNK        -0.1955 
     57 C          31.9476    1.1839   -9.8443 C.2       9 UNK         0.5031 
     58 O          33.1467    1.2288  -10.1232 O.2       9 UNK        -0.5390 
     59 N          31.3301    2.0452   -9.0204 N.am      10 UNK        -0.4204 
     60 CA         31.9463    3.0781   -8.1802 C.3       10 UNK         0.0237 
     61 CB         32.6030    4.1843   -9.0337 C.3       10 UNK        -0.1985 
     62 C          32.8977    2.4478   -7.1457 C.2       10 UNK         0.4970 
     63 O          34.0710    2.8169   -7.0683 O.2       10 UNK        -0.4914 
     64 N          32.3642    1.4749   -6.3950 N.am      11 UNK        -0.4285 
     65 CA         33.0927    0.6502   -5.4166 C.3       11 UNK         0.1007 
     66 C          33.6134    1.4028   -4.1554 C.2       11 UNK         0.5703 
     67 N          33.1889    2.6330   -3.8926 N.am      11 UNK        -0.7361 
     68 O          34.4225    0.8614   -3.4063 O.2       11 UNK        -0.4986 
     69 C69        32.2711   -0.6156   -5.0317 C.3       12 UNK        -0.0947 
     70 S70        33.2608   -2.1444   -5.0767 S.3       12 UNK        -0.2240 
     71 C71        32.2215   -3.2363   -6.1140 C.3       12 UNK         0.0194 
     72 H72        30.1640    1.1396   -3.4292 H         1 UNK         0.0906 
     73 H73        28.8412    1.8504   -2.4876 H         1 UNK         0.0906 
     74 H74        30.2533    2.8090   -2.8914 H         1 UNK         0.0906 
     75 H75        30.7036    0.0199    0.1752 H         1 UNK         0.3140 
     76 H76        29.0310   -0.6652   -2.1013 H         1 UNK         0.1085 
     77 H77        30.3765   -2.3165   -0.6162 H         1 UNK         0.0836 
     78 H78        29.1260   -2.1231    0.5739 H         1 UNK         0.0836 
     79 H79        29.2088   -5.5256   -1.6632 H         1 UNK         0.0731 
     80 H80        30.5058   -4.3893   -1.4559 H         1 UNK         0.0731 
     81 H81        31.5468   -3.3942   -3.3955 H         1 UNK         0.1312 
     82 H82        30.1568   -4.4814   -7.3154 H         1 UNK         0.1406 
     83 H83        27.9128   -5.6036   -3.8417 H         1 UNK         0.1631 
     84 H84        27.7239   -6.8380   -6.0750 H         1 UNK         0.0717 
     85 H85        28.3686   -6.1128   -7.5124 H         1 UNK         0.0717 
     86 H86        27.3260   -4.7632   -8.9680 H         1 UNK         0.0934 
     87 H87        25.6079   -4.9682   -9.0304 H         1 UNK         0.0934 
     88 H88        26.1294   -2.7317   -9.7589 H         1 UNK         0.0739 
     89 H89        24.4891   -3.0547   -7.4609 H         1 UNK         0.3093 
     90 H90        23.2565    0.2798   -7.2833 H         1 UNK         0.0818 
     91 H91        21.0723   -0.8409   -7.6070 H         1 UNK         0.0819 
     92 H92        21.9261   -0.7459   -9.1369 H         1 UNK         0.0819 
     93 H93        21.8657   -2.2721   -8.2664 H         1 UNK         0.0819 
     94 H94        22.4755   -2.0080   -5.8367 H         1 UNK         0.3041 
     95 H95        22.9309   -1.9406   -3.5659 H         1 UNK         0.0784 
     96 H96        24.0997   -3.9022   -4.6440 H         1 UNK         0.0793 
     97 H97        25.6539   -3.2975   -4.0824 H         1 UNK         0.0793 
     98 H98        24.4461   -3.8460   -2.9250 H         1 UNK         0.0793 
     99 H99        25.4442   -0.5566   -3.0898 H         1 UNK         0.3024 
    100 H100       25.1417    0.7472   -0.7706 H         1 UNK         0.1171 
    101 H101       25.6071    0.0912    1.6016 H         1 UNK         0.0786 
    102 H102       23.9328   -0.2339    1.1955 H         1 UNK         0.0786 
    103 H103       25.0884   -1.5591    1.2633 H         1 UNK         0.0786 
    104 H104       26.7714   -1.5955   -1.2706 H         1 UNK         0.2977 
    105 H105       26.7192   -2.1290   -6.3062 H         1 UNK         0.3127 
    106 H106       29.4993   -1.5264   -6.5891 H         1 UNK         0.0770 
    107 H107       27.6694   -0.6205   -4.3063 H         1 UNK         0.0814 
    108 H108       28.2545   -2.2738   -4.4484 H         1 UNK         0.0814 
    109 H109       29.3990   -0.9603   -4.2725 H         1 UNK         0.0814 
    110 H110       26.5202    0.4270   -6.5256 H         1 UNK         0.2983 
    111 H111       27.7397    3.0018   -6.7013 H         1 UNK         0.0947 
    112 H112       25.3601    2.6498   -6.0397 H         1 UNK         0.0806 
    113 H113       24.9759    2.0760   -7.6604 H         1 UNK         0.0806 
    114 H114       25.4742    3.7427   -7.4113 H         1 UNK         0.0806 
    115 H115       26.5460    0.7511   -9.2478 H         1 UNK         0.3000 
    116 H116       27.2573    2.3538  -11.4805 H         1 UNK         0.0850 
    117 H117       26.9830    0.2199  -12.7610 H         1 UNK         0.0810 
    118 H118       25.6591    0.4691  -11.6334 H         1 UNK         0.0810 
    119 H119       26.9331   -0.6871  -11.2545 H         1 UNK         0.0810 
    120 H120       29.0929   -0.2473   -9.7969 H         1 UNK         0.3040 
    121 H121       31.4100   -0.0886  -11.4770 H         1 UNK         0.0766 
    122 H122       31.0419   -1.1816   -8.6373 H         1 UNK         0.0812 
    123 H123       32.4294   -1.5001   -9.6709 H         1 UNK         0.0812 
    124 H124       30.8431   -2.0994  -10.1294 H         1 UNK         0.0812 
    125 H125       30.3504    1.8734   -8.8306 H         1 UNK         0.3205 
    126 H126       31.1330    3.5372   -7.6157 H         1 UNK         0.0754 
    127 H127       32.9606    4.9994   -8.4035 H         1 UNK         0.0769 
    128 H128       31.8922    4.6094   -9.7425 H         1 UNK         0.0769 
    129 H129       33.4585    3.8132   -9.5986 H         1 UNK         0.0769 
    130 H130       31.3786    1.2548   -6.5270 H         1 UNK         0.2981 
    131 H131       33.9926    0.3255   -5.9425 H         1 UNK         0.0541 
    132 H132       32.5438    3.0953   -4.5110 H         1 UNK         0.3459 
    133 H133       33.5241    3.1017   -3.0661 H         1 UNK         0.3459 
    134 H134       31.4378   -0.7455   -5.7185 H         1 UNK         0.0612 
    135 H135       31.8180   -0.5276   -4.0428 H         1 UNK         0.0612 
    136 H136       32.8497   -4.0588   -6.4581 H         1 UNK         0.0624 
    137 H137       31.9212   -2.6905   -7.0085 H         1 UNK         0.0624 
@<TRIPOS>BOND
     1    1    2 1    
     2    1   72 1    
     3    1   73 1    
     4    1   74 1    
     5    2    3 2    
     6    2    4 am   BACKBONE|DICT|INTERRES
     7    4    5 1    
     8    4   75 1    
     9    5    6 1    
    10    5   35 1    
    11    5   76 1    
    12    6    7 1    
    13    6   77 1    
    14    6   78 1    
    15    7    8 1    
    16    8    9 1    
    17    8   79 1    
    18    8   80 1    
    19    9   10 ar   
    20    9   14 ar   
    21   10   11 ar   
    22   10   81 1    
    23   11   12 ar   
    24   11   71 1    
    25   12   13 ar   
    26   12   82 1    
    27   13   14 ar   
    28   13   15 1    
    29   14   83 1    
    30   15   16 1    
    31   15   84 1    
    32   15   85 1    
    33   16   17 1    
    34   17   18 1    
    35   17   86 1    
    36   17   87 1    
    37   18   19 1    
    38   18   37 1    
    39   18   88 1    
    40   19   20 am   BACKBONE|DICT|INTERRES
    41   19   89 1    
    42   20   21 2    
    43   20   22 1    
    44   22   23 1    
    45   22   24 1    
    46   22   90 1    
    47   23   91 1    
    48   23   92 1    
    49   23   93 1    
    50   24   25 am   BACKBONE|DICT|INTERRES
    51   24   94 1    
    52   25   26 2    
    53   25   27 1    
    54   27   28 1    
    55   27   29 1    
    56   27   95 1    
    57   28   96 1    
    58   28   97 1    
    59   28   98 1    
    60   29   30 am   BACKBONE|DICT|INTERRES
    61   29   99 1    
    62   30   31 2    
    63   30   32 1    
    64   32   33 1    
    65   32   34 1    
    66   32  100 1    
    67   33  101 1    
    68   33  102 1    
    69   33  103 1    
    70   34   35 am   BACKBONE|DICT|INTERRES
    71   34  104 1    
    72   35   36 2    
    73   37   38 2    
    74   37   39 am   BACKBONE|DICT|INTERRES
    75   39   40 1    
    76   39  105 1    
    77   40   41 1    
    78   40   42 1    
    79   40  106 1    
    80   41  107 1    
    81   41  108 1    
    82   41  109 1    
    83   42   43 2    
    84   42   44 am   BACKBONE|DICT|INTERRES
    85   44   45 1    
    86   44  110 1    
    87   45   46 1    
    88   45   47 1    
    89   45  111 1    
    90   46  112 1    
    91   46  113 1    
    92   46  114 1    
    93   47   48 2    
    94   47   49 am   BACKBONE|DICT|INTERRES
    95   49   50 1    
    96   49  115 1    
    97   50   51 1    
    98   50   52 1    
    99   50  116 1    
   100   51  117 1    
   101   51  118 1    
   102   51  119 1    
   103   52   53 2    
   104   52   54 am   BACKBONE|DICT|INTERRES
   105   54   55 1    
   106   54  120 1    
   107   55   56 1    
   108   55   57 1    
   109   55  121 1    
   110   56  122 1    
   111   56  123 1    
   112   56  124 1    
   113   57   58 2    
   114   57   59 am   BACKBONE|DICT|INTERRES
   115   59   60 1    
   116   59  125 1    
   117   60   61 1    
   118   60   62 1    
   119   60  126 1    
   120   61  127 1    
   121   61  128 1    
   122   61  129 1    
   123   62   63 2    
   124   62   64 am   BACKBONE|DICT|INTERRES
   125   64   65 1    
   126   64  130 1    
   127   65   66 1    
   128   65   69 1    
   129   65  131 1    
   130   66   67 am   BACKBONE|DICT|INTERRES
   131   66   68 2    
   132   67  132 1    
   133   67  133 1    
   134   69   70 1    
   135   69  134 1    
   136   69  135 1    
   137   70   71 1    
   138   71  136 1    
   139   71  137 1    
@<TRIPOS>SUBSTRUCTURE
     1 UNK         1 GROUP             0       ****    0 ROOT    
