@<TRIPOS>MOLECULE
3R137
137   139    1
SMALL
USER_CHARGES


@<TRIPOS>ATOM
      1 CA         30.7900   -4.7182   -5.1228 C.3       0 UNK        -0.2020 
      2 C          29.5959   -5.2182   -4.3239 C.2       0 UNK         0.4855 
      3 O          29.3624   -6.4263   -4.2743 O.2       0 UNK        -0.5197 
      4 N          28.8452   -4.3096   -3.6910 N.am      1 UNK        -0.4892 
      5 CA         27.7013   -4.6220   -2.8348 C.3       1 UNK         0.0835 
      6 C6         28.1316   -5.1875   -1.4446 C.3       12 UNK        -0.0855 
      7 S7         28.8221   -3.9979   -0.2332 S.3       12 UNK        -0.2931 
      8 C8         30.5907   -3.8946   -0.6875 C.3       12 UNK         0.0378 
      9 C9         30.9518   -2.7771   -1.6709 C.ar      12 UNK        -0.0802 
     10 C10        32.1479   -2.8743   -2.3877 C.ar      12 UNK        -0.0944 
     11 C11        32.5371   -1.8681   -3.2773 C.ar      12 UNK        -0.0787 
     12 C12        31.7090   -0.7563   -3.4612 C.ar      12 UNK        -0.0862 
     13 C13        30.5030   -0.6403   -2.7627 C.ar      12 UNK        -0.0733 
     14 C14        30.1484   -1.6433   -1.8507 C.ar      12 UNK        -0.0832 
     15 C15        29.6137    0.5825   -2.9956 C.3       12 UNK         0.0240 
     16 S16        27.8331    0.2062   -2.8786 S.3       12 UNK        -0.2522 
     17 C17        27.0533    1.7019   -3.5587 C.3       12 UNK        -0.0967 
     18 CA         26.7919    1.5573   -5.0751 C.3       5 UNK         0.0660 
     19 N          25.9557    0.3932   -5.4137 N.am      5 UNK        -0.4015 
     20 C          25.7999   -0.1027   -6.6517 C.2       4 UNK         0.4946 
     21 O          26.2846    0.4344   -7.6507 O.2       4 UNK        -0.5353 
     22 CA         24.9705   -1.3856   -6.8321 C.3       4 UNK         0.0277 
     23 CB         25.8342   -2.5306   -7.3833 C.3       4 UNK        -0.1981 
     24 N          24.3397   -1.8398   -5.5922 N.am      4 UNK        -0.4209 
     25 C          23.0481   -1.6499   -5.2880 C.2       3 UNK         0.4942 
     26 O          22.2638   -1.0216   -6.0002 O.2       3 UNK        -0.5208 
     27 CA         22.5253   -2.2691   -3.9783 C.3       3 UNK         0.0250 
     28 CB         21.8005   -3.5942   -4.2661 C.3       3 UNK        -0.1990 
     29 N          23.5609   -2.5006   -2.9688 N.am      3 UNK        -0.4232 
     30 C          24.2447   -1.5324   -2.3462 C.2       2 UNK         0.4993 
     31 O          24.0854   -0.3308   -2.5640 O.2       2 UNK        -0.5286 
     32 CA         25.2989   -1.9817   -1.3236 C.3       2 UNK         0.0209 
     33 CB         24.6489   -2.1914    0.0537 C.3       2 UNK        -0.1931 
     34 N          26.0713   -3.1810   -1.6774 N.am      2 UNK        -0.4546 
     35 C          26.7277   -3.4228   -2.8234 C.2       1 UNK         0.5154 
     36 O          26.5867   -2.7532   -3.8505 O.2       1 UNK        -0.5181 
     37 C          26.3093    2.8877   -5.6911 C.2       5 UNK         0.5014 
     38 O          27.1036    3.8255   -5.7681 O.2       5 UNK        -0.5248 
     39 N          25.0677    2.9374   -6.1974 N.am      6 UNK        -0.4434 
     40 CA         24.5524    4.0167   -7.0484 C.3       6 UNK         0.0363 
     41 CB         23.0615    3.7705   -7.3289 C.3       6 UNK        -0.1936 
     42 C          25.3296    4.1793   -8.3730 C.2       6 UNK         0.5081 
     43 O          25.3773    5.2862   -8.9090 O.2       6 UNK        -0.5248 
     44 N          25.9481    3.0914   -8.8540 N.am      7 UNK        -0.4718 
     45 CA         26.8699    3.0595   -9.9923 C.3       7 UNK         0.0273 
     46 CB         26.3495    2.0314  -11.0138 C.3       7 UNK        -0.1935 
     47 C          28.3013    2.7259   -9.5243 C.2       7 UNK         0.5018 
     48 O          29.0775    2.1540  -10.2924 O.2       7 UNK        -0.5186 
     49 N          28.6139    3.0353   -8.2537 N.am      8 UNK        -0.4240 
     50 CA         29.8631    2.7460   -7.5321 C.3       8 UNK         0.0235 
     51 CB         31.0406    3.5373   -8.1404 C.3       8 UNK        -0.2000 
     52 C          30.1898    1.2440   -7.3991 C.2       8 UNK         0.4941 
     53 O          31.3296    0.9045   -7.0842 O.2       8 UNK        -0.5273 
     54 N          29.2081    0.3689   -7.6699 N.am      9 UNK        -0.4262 
     55 CA         29.2841   -1.0961   -7.6896 C.3       9 UNK         0.0264 
     56 CB         29.3676   -1.6401   -6.2528 C.3       9 UNK        -0.1955 
     57 C          30.3817   -1.6646   -8.6123 C.2       9 UNK         0.5031 
     58 O          30.8670   -2.7707   -8.3723 O.2       9 UNK        -0.5390 
     59 N          30.7590   -0.8835   -9.6378 N.am      10 UNK        -0.4204 
     60 CA         31.8905   -1.0830  -10.5514 C.3       10 UNK         0.0237 
     61 CB         31.6963   -2.3507  -11.4112 C.3       10 UNK        -0.1985 
     62 C          33.2756   -1.0399   -9.8656 C.2       10 UNK         0.4970 
     63 O          34.2598   -1.4423  -10.4888 O.2       10 UNK        -0.4914 
     64 N          33.3499   -0.5354   -8.6252 N.am      11 UNK        -0.4285 
     65 CA         34.5960   -0.3705   -7.8605 C.3       11 UNK         0.1007 
     66 C          35.3885    0.9193   -8.2225 C.2       11 UNK         0.5703 
     67 N          34.8440    1.8426   -9.0074 N.am      11 UNK        -0.7361 
     68 O          36.5289    1.0790   -7.7934 O.2       11 UNK        -0.4986 
     69 C69        34.3480   -0.4616   -6.3315 C.3       12 UNK        -0.0947 
     70 S70        33.6576   -2.0712   -5.8195 S.3       12 UNK        -0.2240 
     71 C71        33.8667   -1.9749   -4.0125 C.3       12 UNK         0.0194 
     72 H72        30.6150   -4.8472   -6.1907 H         1 UNK         0.0906 
     73 H73        30.9920   -3.6649   -4.9363 H         1 UNK         0.0906 
     74 H74        31.6850   -5.2782   -4.8536 H         1 UNK         0.0906 
     75 H75        29.0392   -3.3210   -3.7861 H         1 UNK         0.3140 
     76 H76        27.1377   -5.4116   -3.3372 H         1 UNK         0.1085 
     77 H77        27.2703   -5.6619   -0.9714 H         1 UNK         0.0836 
     78 H78        28.8464   -6.0008   -1.5774 H         1 UNK         0.0836 
     79 H79        30.9138   -4.8590   -1.0826 H         1 UNK         0.0731 
     80 H80        31.1634   -3.7318    0.2263 H         1 UNK         0.0731 
     81 H81        32.7862   -3.7354   -2.2428 H         1 UNK         0.1312 
     82 H82        32.0045    0.0167   -4.1580 H         1 UNK         0.1406 
     83 H83        29.2357   -1.5386   -1.2826 H         1 UNK         0.1631 
     84 H84        29.8129    0.9999   -3.9841 H         1 UNK         0.0717 
     85 H85        29.8673    1.3537   -2.2674 H         1 UNK         0.0717 
     86 H86        26.1174    1.8754   -3.0238 H         1 UNK         0.0934 
     87 H87        27.6935    2.5607   -3.3457 H         1 UNK         0.0934 
     88 H88        27.7621    1.3702   -5.5359 H         1 UNK         0.0739 
     89 H89        25.5385   -0.0970   -4.6336 H         1 UNK         0.3093 
     90 H90        24.2076   -1.1618   -7.5806 H         1 UNK         0.0818 
     91 H91        26.2378   -2.2771   -8.3637 H         1 UNK         0.0819 
     92 H92        26.6695   -2.7624   -6.7217 H         1 UNK         0.0819 
     93 H93        25.2482   -3.4412   -7.5092 H         1 UNK         0.0819 
     94 H94        24.9421   -2.3272   -4.9339 H         1 UNK         0.3041 
     95 H95        21.8013   -1.5684   -3.5569 H         1 UNK         0.0784 
     96 H96        20.9998   -3.4515   -4.9935 H         1 UNK         0.0793 
     97 H97        22.4789   -4.3458   -4.6721 H         1 UNK         0.0793 
     98 H98        21.3453   -4.0029   -3.3637 H         1 UNK         0.0793 
     99 H99        23.7700   -3.4601   -2.7338 H         1 UNK         0.3024 
    100 H100       26.0122   -1.1633   -1.2254 H         1 UNK         0.1171 
    101 H101       25.3996   -2.3710    0.8237 H         1 UNK         0.0786 
    102 H102       24.0824   -1.3099    0.3580 H         1 UNK         0.0786 
    103 H103       23.9603   -3.0373    0.0514 H         1 UNK         0.0786 
    104 H104       26.2869   -3.7932   -0.9029 H         1 UNK         0.2977 
    105 H105       24.4773    2.1256   -6.0880 H         1 UNK         0.3127 
    106 H106       24.6497    4.9530   -6.4947 H         1 UNK         0.0770 
    107 H107       22.9003    2.8342   -7.8651 H         1 UNK         0.0814 
    108 H108       22.6426    4.5716   -7.9397 H         1 UNK         0.0814 
    109 H109       22.4834    3.7342   -6.4054 H         1 UNK         0.0814 
    110 H110       25.8644    2.2146   -8.3452 H         1 UNK         0.2983 
    111 H111       26.9160    4.0361  -10.4788 H         1 UNK         0.0947 
    112 H112       26.9740    2.0117  -11.9079 H         1 UNK         0.0806 
    113 H113       25.3359    2.2714  -11.3350 H         1 UNK         0.0806 
    114 H114       26.3392    1.0229  -10.5977 H         1 UNK         0.0806 
    115 H115       27.9027    3.4949   -7.6952 H         1 UNK         0.3000 
    116 H116       29.7150    3.1077   -6.5136 H         1 UNK         0.0850 
    117 H117       31.9382    3.4401   -7.5281 H         1 UNK         0.0810 
    118 H118       30.8112    4.6008   -8.2066 H         1 UNK         0.0810 
    119 H119       31.2926    3.1853   -9.1411 H         1 UNK         0.0810 
    120 H120       28.2934    0.7374   -7.9099 H         1 UNK         0.3040 
    121 H121       28.3440   -1.4320   -8.1216 H         1 UNK         0.0766 
    122 H122       30.3497   -1.4579   -5.8172 H         1 UNK         0.0812 
    123 H123       29.1899   -2.7141   -6.2443 H         1 UNK         0.0812 
    124 H124       28.6191   -1.1875   -5.6027 H         1 UNK         0.0812 
    125 H125       30.2757    0.0010   -9.7396 H         1 UNK         0.3205 
    126 H126       31.8733   -0.2271  -11.2275 H         1 UNK         0.0754 
    127 H127       32.4449   -2.4064  -12.2026 H         1 UNK         0.0769 
    128 H128       30.7185   -2.3579  -11.8927 H         1 UNK         0.0769 
    129 H129       31.7856   -3.2612  -10.8180 H         1 UNK         0.0769 
    130 H130       32.5117   -0.1967   -8.1615 H         1 UNK         0.2981 
    131 H131       35.2584   -1.1980   -8.1217 H         1 UNK         0.0541 
    132 H132       35.3725    2.6689   -9.2379 H         1 UNK         0.3459 
    133 H133       33.9086    1.7238   -9.3594 H         1 UNK         0.3459 
    134 H134       33.6782    0.3325   -5.9990 H         1 UNK         0.0612 
    135 H135       35.2866   -0.3179   -5.7930 H         1 UNK         0.0612 
    136 H136       34.4136   -2.8618   -3.6892 H         1 UNK         0.0624 
    137 H137       34.4901   -1.1223   -3.7412 H         1 UNK         0.0624 
@<TRIPOS>BOND
     1    1    2 1    
     2    1   72 1    
     3    1   73 1    
     4    1   74 1    
     5    2    3 2    
     6    2    4 am   BACKBONE|DICT|INTERRES
     7    4    5 1    
     8    4   75 1    
     9    5    6 1    
    10    5   35 1    
    11    5   76 1    
    12    6    7 1    
    13    6   77 1    
    14    6   78 1    
    15    7    8 1    
    16    8    9 1    
    17    8   79 1    
    18    8   80 1    
    19    9   10 ar   
    20    9   14 ar   
    21   10   11 ar   
    22   10   81 1    
    23   11   12 ar   
    24   11   71 1    
    25   12   13 ar   
    26   12   82 1    
    27   13   14 ar   
    28   13   15 1    
    29   14   83 1    
    30   15   16 1    
    31   15   84 1    
    32   15   85 1    
    33   16   17 1    
    34   17   18 1    
    35   17   86 1    
    36   17   87 1    
    37   18   19 1    
    38   18   37 1    
    39   18   88 1    
    40   19   20 am   BACKBONE|DICT|INTERRES
    41   19   89 1    
    42   20   21 2    
    43   20   22 1    
    44   22   23 1    
    45   22   24 1    
    46   22   90 1    
    47   23   91 1    
    48   23   92 1    
    49   23   93 1    
    50   24   25 am   BACKBONE|DICT|INTERRES
    51   24   94 1    
    52   25   26 2    
    53   25   27 1    
    54   27   28 1    
    55   27   29 1    
    56   27   95 1    
    57   28   96 1    
    58   28   97 1    
    59   28   98 1    
    60   29   30 am   BACKBONE|DICT|INTERRES
    61   29   99 1    
    62   30   31 2    
    63   30   32 1    
    64   32   33 1    
    65   32   34 1    
    66   32  100 1    
    67   33  101 1    
    68   33  102 1    
    69   33  103 1    
    70   34   35 am   BACKBONE|DICT|INTERRES
    71   34  104 1    
    72   35   36 2    
    73   37   38 2    
    74   37   39 am   BACKBONE|DICT|INTERRES
    75   39   40 1    
    76   39  105 1    
    77   40   41 1    
    78   40   42 1    
    79   40  106 1    
    80   41  107 1    
    81   41  108 1    
    82   41  109 1    
    83   42   43 2    
    84   42   44 am   BACKBONE|DICT|INTERRES
    85   44   45 1    
    86   44  110 1    
    87   45   46 1    
    88   45   47 1    
    89   45  111 1    
    90   46  112 1    
    91   46  113 1    
    92   46  114 1    
    93   47   48 2    
    94   47   49 am   BACKBONE|DICT|INTERRES
    95   49   50 1    
    96   49  115 1    
    97   50   51 1    
    98   50   52 1    
    99   50  116 1    
   100   51  117 1    
   101   51  118 1    
   102   51  119 1    
   103   52   53 2    
   104   52   54 am   BACKBONE|DICT|INTERRES
   105   54   55 1    
   106   54  120 1    
   107   55   56 1    
   108   55   57 1    
   109   55  121 1    
   110   56  122 1    
   111   56  123 1    
   112   56  124 1    
   113   57   58 2    
   114   57   59 am   BACKBONE|DICT|INTERRES
   115   59   60 1    
   116   59  125 1    
   117   60   61 1    
   118   60   62 1    
   119   60  126 1    
   120   61  127 1    
   121   61  128 1    
   122   61  129 1    
   123   62   63 2    
   124   62   64 am   BACKBONE|DICT|INTERRES
   125   64   65 1    
   126   64  130 1    
   127   65   66 1    
   128   65   69 1    
   129   65  131 1    
   130   66   67 am   BACKBONE|DICT|INTERRES
   131   66   68 2    
   132   67  132 1    
   133   67  133 1    
   134   69   70 1    
   135   69  134 1    
   136   69  135 1    
   137   70   71 1    
   138   71  136 1    
   139   71  137 1    
@<TRIPOS>SUBSTRUCTURE
     1 UNK         1 GROUP             0       ****    0 ROOT    
