@<TRIPOS>MOLECULE
3R137
137   139    1
SMALL
USER_CHARGES


@<TRIPOS>ATOM
      1 CA         24.2284   -5.5615   -4.4411 C.3       0 UNK        -0.2020 
      2 C          24.8889   -4.8308   -3.2825 C.2       0 UNK         0.4855 
      3 O          24.2104   -4.1200   -2.5405 O.2       0 UNK        -0.5197 
      4 N          26.2105   -4.9845   -3.1242 N.am      1 UNK        -0.4892 
      5 CA         27.0102   -4.3098   -2.0963 C.3       1 UNK         0.0835 
      6 C6         28.4513   -4.8662   -2.0487 C.3       12 UNK        -0.0855 
      7 S7         29.3637   -4.3109   -0.5659 S.3       12 UNK        -0.2931 
      8 C8         31.0877   -4.2983   -1.1566 C.3       12 UNK         0.0378 
      9 C9         31.3038   -3.3211   -2.3042 C.ar      12 UNK        -0.0802 
     10 C10        31.5260   -3.8001   -3.5980 C.ar      12 UNK        -0.0944 
     11 C11        31.7248   -2.9143   -4.6584 C.ar      12 UNK        -0.0787 
     12 C12        31.7035   -1.5369   -4.4163 C.ar      12 UNK        -0.0862 
     13 C13        31.4842   -1.0394   -3.1260 C.ar      12 UNK        -0.0733 
     14 C14        31.2881   -1.9418   -2.0743 C.ar      12 UNK        -0.0832 
     15 C15        31.4931    0.4618   -2.8352 C.3       12 UNK         0.0240 
     16 S16        30.6686    1.4994   -4.0937 S.3       12 UNK        -0.2522 
     17 C17        28.9403    0.9258   -4.0015 C.3       12 UNK        -0.0967 
     18 CA         28.2911    0.8518   -5.4088 C.3       5 UNK         0.0660 
     19 N          27.4305   -0.3243   -5.5560 N.am      5 UNK        -0.4015 
     20 C          26.8470   -0.7102   -6.6997 C.2       4 UNK         0.4946 
     21 O          27.0038   -0.1421   -7.7810 O.2       4 UNK        -0.5353 
     22 CA         25.8650   -1.8874   -6.6024 C.3       4 UNK         0.0277 
     23 CB         26.6046   -3.2357   -6.6103 C.3       4 UNK        -0.1981 
     24 N          25.0263   -1.7728   -5.4063 N.am      4 UNK        -0.4209 
     25 C          24.0323   -0.8807   -5.2743 C.2       3 UNK         0.4942 
     26 O          23.6562   -0.1401   -6.1813 O.2       3 UNK        -0.5208 
     27 CA         23.3691   -0.7599   -3.8921 C.3       3 UNK         0.0250 
     28 CB         22.1622   -1.7048   -3.7826 C.3       3 UNK        -0.1990 
     29 N          24.3057   -1.0051   -2.7913 N.am      3 UNK        -0.4232 
     30 C          25.2982   -0.1636   -2.4589 C.2       2 UNK         0.4993 
     31 O          25.4976    0.9087   -3.0266 O.2       2 UNK        -0.5286 
     32 CA         26.2701   -0.6020   -1.3493 C.3       2 UNK         0.0209 
     33 CB         25.7817   -0.1068    0.0207 C.3       2 UNK        -0.1931 
     34 N          26.4908   -2.0489   -1.2971 N.am      2 UNK        -0.4546 
     35 C          26.9736   -2.7817   -2.3094 C.2       1 UNK         0.5154 
     36 O          27.3167   -2.3037   -3.3942 O.2       1 UNK        -0.5181 
     37 C          27.5598    2.1570   -5.7960 C.2       5 UNK         0.5014 
     38 O          28.0927    2.9460   -6.5778 O.2       5 UNK        -0.5248 
     39 N          26.3221    2.3289   -5.3052 N.am      6 UNK        -0.4434 
     40 CA         25.4158    3.4280   -5.6585 C.3       6 UNK         0.0363 
     41 CB         24.1739    3.3770   -4.7552 C.3       6 UNK        -0.1936 
     42 C          24.9969    3.4394   -7.1411 C.2       6 UNK         0.5081 
     43 O          24.7548    4.5151   -7.6879 O.2       6 UNK        -0.5248 
     44 N          24.9546    2.2605   -7.7772 N.am      7 UNK        -0.4718 
     45 CA         24.7269    2.0806   -9.2156 C.3       7 UNK         0.0273 
     46 CB         24.0962    0.6984   -9.4598 C.3       7 UNK        -0.1935 
     47 C          26.0018    2.2776  -10.0647 C.2       7 UNK         0.5018 
     48 O          25.9579    2.0295  -11.2705 O.2       7 UNK        -0.5186 
     49 N          27.0985    2.7270   -9.4363 N.am      8 UNK        -0.4240 
     50 CA         28.4021    3.0678  -10.0118 C.3       8 UNK         0.0235 
     51 CB         28.2823    4.1203  -11.1360 C.3       8 UNK        -0.2000 
     52 C          29.2647    1.8575  -10.4094 C.2       8 UNK         0.4941 
     53 O          30.2457    2.0400  -11.1340 O.2       8 UNK        -0.5273 
     54 N          28.9598    0.6597   -9.8877 N.am      9 UNK        -0.4262 
     55 CA         29.8801   -0.4782   -9.9050 C.3       9 UNK         0.0264 
     56 CB         29.0871   -1.7972   -9.8874 C.3       9 UNK        -0.1955 
     57 C          30.8019   -0.3231   -8.6872 C.2       9 UNK         0.5031 
     58 O          30.4820   -0.8222   -7.6116 O.2       9 UNK        -0.5390 
     59 N          31.8780    0.4540   -8.8574 N.am      10 UNK        -0.4204 
     60 CA         32.7213    0.9573   -7.7692 C.3       10 UNK         0.0237 
     61 CB         33.4228    2.2392   -8.2506 C.3       10 UNK        -0.1985 
     62 C          33.7514   -0.0437   -7.2136 C.2       10 UNK         0.4970 
     63 O          34.3618    0.2628   -6.1892 O.2       10 UNK        -0.4914 
     64 N          33.9562   -1.1868   -7.8869 N.am      11 UNK        -0.4285 
     65 CA         34.9732   -2.2092   -7.5579 C.3       11 UNK         0.1007 
     66 C          36.4505   -1.7290   -7.7367 C.2       11 UNK         0.5703 
     67 N          36.7116   -0.6302   -8.4359 N.am      11 UNK        -0.7361 
     68 O          37.3847   -2.3824   -7.2774 O.2       11 UNK        -0.4986 
     69 C69        34.7116   -2.9129   -6.1852 C.3       12 UNK        -0.0947 
     70 S70        33.5196   -4.2873   -6.3048 S.3       12 UNK        -0.2240 
     71 C71        31.9231   -3.4511   -6.0691 C.3       12 UNK         0.0194 
     72 H72        23.4464   -6.2227   -4.0688 H         1 UNK         0.0906 
     73 H73        23.7719   -4.8456   -5.1242 H         1 UNK         0.0906 
     74 H74        24.9411   -6.1629   -5.0050 H         1 UNK         0.0906 
     75 H75        26.7257   -5.5614   -3.7738 H         1 UNK         0.3140 
     76 H76        26.5370   -4.5362   -1.1379 H         1 UNK         0.1085 
     77 H77        28.4302   -5.9570   -2.0261 H         1 UNK         0.0836 
     78 H78        28.9859   -4.5950   -2.9593 H         1 UNK         0.0836 
     79 H79        31.3704   -5.3107   -1.4500 H         1 UNK         0.0731 
     80 H80        31.7431   -4.0284   -0.3273 H         1 UNK         0.0731 
     81 H81        31.5376   -4.8652   -3.7858 H         1 UNK         0.1312 
     82 H82        31.8482   -0.8499   -5.2370 H         1 UNK         0.1406 
     83 H83        31.1206   -1.5746   -1.0707 H         1 UNK         0.1631 
     84 H84        32.5310    0.7859   -2.7507 H         1 UNK         0.0717 
     85 H85        31.0278    0.6666   -1.8697 H         1 UNK         0.0717 
     86 H86        28.9414   -0.0616   -3.5377 H         1 UNK         0.0934 
     87 H87        28.3784    1.5665   -3.3187 H         1 UNK         0.0934 
     88 H88        29.0824    0.7163   -6.1468 H         1 UNK         0.0739 
     89 H89        27.2937   -0.8989   -4.7293 H         1 UNK         0.3093 
     90 H90        25.2165   -1.8563   -7.4806 H         1 UNK         0.0818 
     91 H91        25.9066   -4.0711   -6.5659 H         1 UNK         0.0819 
     92 H92        27.1856   -3.3520   -7.5255 H         1 UNK         0.0819 
     93 H93        27.2989   -3.3314   -5.7757 H         1 UNK         0.0819 
     94 H94        25.3177   -2.2970   -4.5927 H         1 UNK         0.3041 
     95 H95        23.0001    0.2633   -3.7932 H         1 UNK         0.0784 
     96 H96        21.4154   -1.4665   -4.5412 H         1 UNK         0.0793 
     97 H97        22.4449   -2.7475   -3.9260 H         1 UNK         0.0793 
     98 H98        21.6754   -1.6185   -2.8111 H         1 UNK         0.0793 
     99 H99        24.2306   -1.8967   -2.3146 H         1 UNK         0.3024 
    100 H100       27.2329   -0.1314   -1.5597 H         1 UNK         0.1171 
    101 H101       25.6311    0.9739    0.0133 H         1 UNK         0.0786 
    102 H102       26.5081   -0.3247    0.8040 H         1 UNK         0.0786 
    103 H103       24.8335   -0.5661    0.3028 H         1 UNK         0.0786 
    104 H104       26.2179   -2.5168   -0.4445 H         1 UNK         0.2977 
    105 H105       25.9787    1.6720   -4.6049 H         1 UNK         0.3127 
    106 H106       25.9433    4.3635   -5.4614 H         1 UNK         0.0770 
    107 H107       23.6143    2.4516   -4.8953 H         1 UNK         0.0814 
    108 H108       23.4973    4.2044   -4.9729 H         1 UNK         0.0814 
    109 H109       24.4451    3.4487   -3.7017 H         1 UNK         0.0814 
    110 H110       25.1505    1.4185   -7.2500 H         1 UNK         0.2983 
    111 H111       24.0107    2.8344   -9.5495 H         1 UNK         0.0947 
    112 H112       23.8197    0.5725  -10.5073 H         1 UNK         0.0806 
    113 H113       23.1894    0.5658   -8.8695 H         1 UNK         0.0806 
    114 H114       24.7816   -0.1097   -9.2068 H         1 UNK         0.0806 
    115 H115       27.0453    2.8379   -8.4295 H         1 UNK         0.3000 
    116 H116       28.9490    3.5427   -9.1958 H         1 UNK         0.0850 
    117 H117       29.2630    4.5088  -11.4131 H         1 UNK         0.0810 
    118 H118       27.6769    4.9706  -10.8222 H         1 UNK         0.0810 
    119 H119       27.8365    3.7028  -12.0390 H         1 UNK         0.0810 
    120 H120       28.1715    0.5799   -9.2494 H         1 UNK         0.3040 
    121 H121       30.4845   -0.4685  -10.8148 H         1 UNK         0.0766 
    122 H122       28.4149   -1.8664  -10.7425 H         1 UNK         0.0812 
    123 H123       28.4888   -1.9050   -8.9842 H         1 UNK         0.0812 
    124 H124       29.7611   -2.6534   -9.9305 H         1 UNK         0.0812 
    125 H125       32.0314    0.8571   -9.7726 H         1 UNK         0.3205 
    126 H126       32.0694    1.2286   -6.9354 H         1 UNK         0.0754 
    127 H127       34.0263    2.6801   -7.4557 H         1 UNK         0.0769 
    128 H128       32.6991    2.9947   -8.5582 H         1 UNK         0.0769 
    129 H129       34.0859    2.0455   -9.0946 H         1 UNK         0.0769 
    130 H130       33.4217   -1.3508   -8.7267 H         1 UNK         0.2981 
    131 H131       34.8716   -2.9664   -8.3360 H         1 UNK         0.0541 
    132 H132       35.9652   -0.0893   -8.8402 H         1 UNK         0.3459 
    133 H133       37.6693   -0.3408   -8.5572 H         1 UNK         0.3459 
    134 H134       35.6213   -3.3657   -5.7891 H         1 UNK         0.0612 
    135 H135       34.3926   -2.2092   -5.4169 H         1 UNK         0.0612 
    136 H136       31.1196   -4.1516   -6.3002 H         1 UNK         0.0624 
    137 H137       31.8530   -2.6563   -6.8047 H         1 UNK         0.0624 
@<TRIPOS>BOND
     1    1    2 1    
     2    1   72 1    
     3    1   73 1    
     4    1   74 1    
     5    2    3 2    
     6    2    4 am   BACKBONE|DICT|INTERRES
     7    4    5 1    
     8    4   75 1    
     9    5    6 1    
    10    5   35 1    
    11    5   76 1    
    12    6    7 1    
    13    6   77 1    
    14    6   78 1    
    15    7    8 1    
    16    8    9 1    
    17    8   79 1    
    18    8   80 1    
    19    9   10 ar   
    20    9   14 ar   
    21   10   11 ar   
    22   10   81 1    
    23   11   12 ar   
    24   11   71 1    
    25   12   13 ar   
    26   12   82 1    
    27   13   14 ar   
    28   13   15 1    
    29   14   83 1    
    30   15   16 1    
    31   15   84 1    
    32   15   85 1    
    33   16   17 1    
    34   17   18 1    
    35   17   86 1    
    36   17   87 1    
    37   18   19 1    
    38   18   37 1    
    39   18   88 1    
    40   19   20 am   BACKBONE|DICT|INTERRES
    41   19   89 1    
    42   20   21 2    
    43   20   22 1    
    44   22   23 1    
    45   22   24 1    
    46   22   90 1    
    47   23   91 1    
    48   23   92 1    
    49   23   93 1    
    50   24   25 am   BACKBONE|DICT|INTERRES
    51   24   94 1    
    52   25   26 2    
    53   25   27 1    
    54   27   28 1    
    55   27   29 1    
    56   27   95 1    
    57   28   96 1    
    58   28   97 1    
    59   28   98 1    
    60   29   30 am   BACKBONE|DICT|INTERRES
    61   29   99 1    
    62   30   31 2    
    63   30   32 1    
    64   32   33 1    
    65   32   34 1    
    66   32  100 1    
    67   33  101 1    
    68   33  102 1    
    69   33  103 1    
    70   34   35 am   BACKBONE|DICT|INTERRES
    71   34  104 1    
    72   35   36 2    
    73   37   38 2    
    74   37   39 am   BACKBONE|DICT|INTERRES
    75   39   40 1    
    76   39  105 1    
    77   40   41 1    
    78   40   42 1    
    79   40  106 1    
    80   41  107 1    
    81   41  108 1    
    82   41  109 1    
    83   42   43 2    
    84   42   44 am   BACKBONE|DICT|INTERRES
    85   44   45 1    
    86   44  110 1    
    87   45   46 1    
    88   45   47 1    
    89   45  111 1    
    90   46  112 1    
    91   46  113 1    
    92   46  114 1    
    93   47   48 2    
    94   47   49 am   BACKBONE|DICT|INTERRES
    95   49   50 1    
    96   49  115 1    
    97   50   51 1    
    98   50   52 1    
    99   50  116 1    
   100   51  117 1    
   101   51  118 1    
   102   51  119 1    
   103   52   53 2    
   104   52   54 am   BACKBONE|DICT|INTERRES
   105   54   55 1    
   106   54  120 1    
   107   55   56 1    
   108   55   57 1    
   109   55  121 1    
   110   56  122 1    
   111   56  123 1    
   112   56  124 1    
   113   57   58 2    
   114   57   59 am   BACKBONE|DICT|INTERRES
   115   59   60 1    
   116   59  125 1    
   117   60   61 1    
   118   60   62 1    
   119   60  126 1    
   120   61  127 1    
   121   61  128 1    
   122   61  129 1    
   123   62   63 2    
   124   62   64 am   BACKBONE|DICT|INTERRES
   125   64   65 1    
   126   64  130 1    
   127   65   66 1    
   128   65   69 1    
   129   65  131 1    
   130   66   67 am   BACKBONE|DICT|INTERRES
   131   66   68 2    
   132   67  132 1    
   133   67  133 1    
   134   69   70 1    
   135   69  134 1    
   136   69  135 1    
   137   70   71 1    
   138   71  136 1    
   139   71  137 1    
@<TRIPOS>SUBSTRUCTURE
     1 UNK         1 GROUP             0       ****    0 ROOT    
