@<TRIPOS>MOLECULE
3R137
137   139    1
SMALL
USER_CHARGES


@<TRIPOS>ATOM
      1 CA         23.5136   -5.4367    0.9270 C.3       0 UNK        -0.2020 
      2 C          24.7249   -4.5696    1.2347 C.2       0 UNK         0.4855 
      3 O          24.6773   -3.7541    2.1554 O.2       0 UNK        -0.5197 
      4 N          25.8110   -4.7366    0.4690 N.am      1 UNK        -0.4892 
      5 CA         27.0694   -3.9911    0.6087 C.3       1 UNK         0.0835 
      6 C6         28.2689   -4.7114   -0.0736 C.3       12 UNK        -0.0855 
      7 S7         27.9112   -5.5505   -1.6622 S.3       12 UNK        -0.2931 
      8 C8         27.9543   -4.2128   -2.8959 C.3       12 UNK         0.0378 
      9 C9         29.3112   -3.5344   -3.0106 C.ar      12 UNK        -0.0802 
     10 C10        30.3323   -4.1293   -3.7576 C.ar      12 UNK        -0.0944 
     11 C11        31.5499   -3.4692   -3.9448 C.ar      12 UNK        -0.0787 
     12 C12        31.7713   -2.2429   -3.3128 C.ar      12 UNK        -0.0862 
     13 C13        30.7637   -1.6438   -2.5532 C.ar      12 UNK        -0.0733 
     14 C14        29.5303   -2.2845   -2.4225 C.ar      12 UNK        -0.0832 
     15 C15        31.0194   -0.3106   -1.8686 C.3       12 UNK         0.0240 
     16 S16        31.1653    1.0530   -3.0642 S.3       12 UNK        -0.2522 
     17 C17        29.4269    1.4911   -3.3959 C.3       12 UNK        -0.0967 
     18 CA         29.0751    1.3396   -4.8998 C.3       5 UNK         0.0660 
     19 N          28.5386    0.0156   -5.2266 N.am      5 UNK        -0.4015 
     20 C          28.7348   -0.6059   -6.3979 C.2       4 UNK         0.4946 
     21 O          29.5575   -0.2357   -7.2371 O.2       4 UNK        -0.5353 
     22 CA         27.8655   -1.8387   -6.7168 C.3       4 UNK         0.0277 
     23 CB         28.7135   -3.1075   -6.8746 C.3       4 UNK        -0.1981 
     24 N          26.7921   -2.0948   -5.7496 N.am      4 UNK        -0.4209 
     25 C          25.6163   -1.4561   -5.7581 C.2       3 UNK         0.4942 
     26 O          25.3428   -0.5464   -6.5376 O.2       3 UNK        -0.5208 
     27 CA         24.5785   -1.8761   -4.7033 C.3       3 UNK         0.0250 
     28 CB         24.0461   -3.2888   -4.9982 C.3       3 UNK        -0.1990 
     29 N          25.0047   -1.7982   -3.2985 N.am      3 UNK        -0.4232 
     30 C          25.6886   -0.8005   -2.7154 C.2       2 UNK         0.4993 
     31 O          26.2446    0.1077   -3.3318 O.2       2 UNK        -0.5286 
     32 CA         25.7748   -0.8122   -1.1832 C.3       2 UNK         0.0209 
     33 CB         24.5096   -0.1879   -0.5722 C.3       2 UNK        -0.1931 
     34 N          25.9680   -2.1618   -0.6399 N.am      2 UNK        -0.4546 
     35 C          26.9734   -2.5126    0.1745 C.2       1 UNK         0.5154 
     36 O          27.8278   -1.7215    0.5766 O.2       1 UNK        -0.5181 
     37 C          28.0802    2.4251   -5.3562 C.2       5 UNK         0.5014 
     38 O          28.5163    3.4525   -5.8757 O.2       5 UNK        -0.5248 
     39 N          26.7714    2.1867   -5.1697 N.am      6 UNK        -0.4434 
     40 CA         25.6856    3.0442   -5.6538 C.3       6 UNK         0.0363 
     41 CB         24.3449    2.5680   -5.0711 C.3       6 UNK        -0.1936 
     42 C          25.6436    3.0983   -7.1901 C.2       6 UNK         0.5081 
     43 O          25.6444    4.1880   -7.7646 O.2       6 UNK        -0.5248 
     44 N          25.6897    1.9246   -7.8337 N.am      7 UNK        -0.4718 
     45 CA         25.9405    1.7615   -9.2657 C.3       7 UNK         0.0273 
     46 CB         25.3354    0.4268   -9.7379 C.3       7 UNK        -0.1935 
     47 C          27.4547    1.8460   -9.5237 C.2       7 UNK         0.5018 
     48 O          28.0833    0.8403   -9.8562 O.2       7 UNK        -0.5186 
     49 N          28.0097    3.0515   -9.3336 N.am      8 UNK        -0.4240 
     50 CA         29.4416    3.3768   -9.2794 C.3       8 UNK         0.0235 
     51 CB         29.5959    4.8899   -9.0548 C.3       8 UNK        -0.2000 
     52 C          30.3019    2.9237  -10.4735 C.2       8 UNK         0.4941 
     53 O          31.5219    2.8521  -10.3326 O.2       8 UNK        -0.5273 
     54 N          29.6750    2.5966  -11.6104 N.am      9 UNK        -0.4262 
     55 CA         30.3143    1.9563  -12.7613 C.3       9 UNK         0.0264 
     56 CB         29.3173    1.9214  -13.9312 C.3       9 UNK        -0.1955 
     57 C          30.8507    0.5386  -12.4681 C.2       9 UNK         0.5031 
     58 O          31.7417    0.0882  -13.1900 O.2       9 UNK        -0.5390 
     59 N          30.3049   -0.1405  -11.4464 N.am      10 UNK        -0.4204 
     60 CA         30.7305   -1.4681  -11.0059 C.3       10 UNK         0.0237 
     61 CB         29.5594   -2.1824  -10.3103 C.3       10 UNK        -0.1985 
     62 C          32.0061   -1.3969  -10.1455 C.2       10 UNK         0.4970 
     63 O          33.0972   -1.5602  -10.6933 O.2       10 UNK        -0.4914 
     64 N          31.8660   -1.1808   -8.8294 N.am      11 UNK        -0.4285 
     65 CA         32.9943   -1.1360   -7.8787 C.3       11 UNK         0.1007 
     66 C          33.6318    0.2729   -7.7073 C.2       11 UNK         0.5703 
     67 N          33.1464    1.3220   -8.3563 N.am      11 UNK        -0.7361 
     68 O          34.6134    0.4167   -6.9828 O.2       11 UNK        -0.4986 
     69 C69        32.6262   -1.7603   -6.5062 C.3       12 UNK        -0.0947 
     70 S70        32.3302   -3.5586   -6.5973 S.3       12 UNK        -0.2240 
     71 C71        32.6090   -4.0575   -4.8646 C.3       12 UNK         0.0194 
     72 H72        22.6528   -4.8099    0.6922 H         1 UNK         0.0906 
     73 H73        23.6912   -6.1010    0.0804 H         1 UNK         0.0906 
     74 H74        23.2626   -6.0503    1.7925 H         1 UNK         0.0906 
     75 H75        25.8119   -5.4334   -0.2648 H         1 UNK         0.3140 
     76 H76        27.2944   -3.9503    1.6773 H         1 UNK         0.1085 
     77 H77        28.6171   -5.4946    0.6015 H         1 UNK         0.0836 
     78 H78        29.1313   -4.0517   -0.1886 H         1 UNK         0.0836 
     79 H79        27.1784   -3.4857   -2.6695 H         1 UNK         0.0731 
     80 H80        27.6863   -4.6386   -3.8639 H         1 UNK         0.0731 
     81 H81        30.1594   -5.0825   -4.2388 H         1 UNK         0.1312 
     82 H82        32.7174   -1.7345   -3.4374 H         1 UNK         0.1406 
     83 H83        28.7453   -1.8040   -1.8598 H         1 UNK         0.1631 
     84 H84        31.9518   -0.3792   -1.3065 H         1 UNK         0.0717 
     85 H85        30.2424   -0.0834   -1.1366 H         1 UNK         0.0717 
     86 H86        28.7541    0.9044   -2.7689 H         1 UNK         0.0934 
     87 H87        29.3111    2.5243   -3.0607 H         1 UNK         0.0934 
     88 H88        29.9838    1.5092   -5.4825 H         1 UNK         0.0739 
     89 H89        27.8260   -0.3387   -4.6012 H         1 UNK         0.3093 
     90 H90        27.4098   -1.6356   -7.6886 H         1 UNK         0.0818 
     91 H91        29.1277   -3.4292   -5.9255 H         1 UNK         0.0819 
     92 H92        28.1274   -3.9305   -7.2834 H         1 UNK         0.0819 
     93 H93        29.5552   -2.9443   -7.5458 H         1 UNK         0.0819 
     94 H94        26.9475   -2.8234   -5.0708 H         1 UNK         0.3041 
     95 H95        23.7410   -1.1829   -4.8044 H         1 UNK         0.0784 
     96 H96        23.7292   -3.3795   -6.0384 H         1 UNK         0.0793 
     97 H97        24.8013   -4.0550   -4.8194 H         1 UNK         0.0793 
     98 H98        23.1795   -3.5235   -4.3798 H         1 UNK         0.0793 
     99 H99        24.5839   -2.4861   -2.6943 H         1 UNK         0.3024 
    100 H100       26.6200   -0.1715   -0.9206 H         1 UNK         0.1171 
    101 H101       24.5979   -0.1021    0.5110 H         1 UNK         0.0786 
    102 H102       24.3405    0.8166   -0.9631 H         1 UNK         0.0786 
    103 H103       23.6183   -0.7779   -0.7878 H         1 UNK         0.0786 
    104 H104       25.2991   -2.8751   -0.8875 H         1 UNK         0.2977 
    105 H105       26.4957    1.3529   -4.6552 H         1 UNK         0.3127 
    106 H106       25.8732    4.0566   -5.2900 H         1 UNK         0.0770 
    107 H107       24.1051    1.5499   -5.3783 H         1 UNK         0.0814 
    108 H108       23.5273    3.2097   -5.4014 H         1 UNK         0.0814 
    109 H109       24.3570    2.5917   -3.9813 H         1 UNK         0.0814 
    110 H110       25.6649    1.0651   -7.2854 H         1 UNK         0.2983 
    111 H111       25.4541    2.5676   -9.8196 H         1 UNK         0.0947 
    112 H112       25.4861    0.2882  -10.8091 H         1 UNK         0.0806 
    113 H113       24.2621    0.3906   -9.5516 H         1 UNK         0.0806 
    114 H114       25.7899   -0.4262   -9.2327 H         1 UNK         0.0806 
    115 H115       27.3839    3.7859   -9.0229 H         1 UNK         0.3000 
    116 H116       29.8397    2.8613   -8.4026 H         1 UNK         0.0850 
    117 H117       30.6469    5.1691   -8.9680 H         1 UNK         0.0810 
    118 H118       29.1042    5.2050   -8.1339 H         1 UNK         0.0810 
    119 H119       29.1711    5.4648   -9.8784 H         1 UNK         0.0810 
    120 H120       28.6693    2.6776  -11.6334 H         1 UNK         0.3040 
    121 H121       31.1670    2.5724  -13.0543 H         1 UNK         0.0766 
    122 H122       28.9898    2.9244  -14.2053 H         1 UNK         0.0812 
    123 H123       28.4323    1.3314  -13.6895 H         1 UNK         0.0812 
    124 H124       29.7722    1.4778  -14.8180 H         1 UNK         0.0812 
    125 H125       29.5638    0.2985  -10.9018 H         1 UNK         0.3205 
    126 H126       30.9797   -2.0609  -11.8888 H         1 UNK         0.0754 
    127 H127       29.8679   -3.1520   -9.9177 H         1 UNK         0.0769 
    128 H128       28.7427   -2.3630  -11.0092 H         1 UNK         0.0769 
    129 H129       29.1559   -1.5964   -9.4866 H         1 UNK         0.0769 
    130 H130       30.9510   -0.9820   -8.4343 H         1 UNK         0.2981 
    131 H131       33.8029   -1.7477   -8.2822 H         1 UNK         0.0541 
    132 H132       32.3641    1.2423   -8.9878 H         1 UNK         0.3459 
    133 H133       33.5892    2.2178   -8.2355 H         1 UNK         0.3459 
    134 H134       33.4341   -1.6049   -5.7894 H         1 UNK         0.0612 
    135 H135       31.7466   -1.2740   -6.0831 H         1 UNK         0.0612 
    136 H136       33.6073   -3.7498   -4.5497 H         1 UNK         0.0624 
    137 H137       32.5899   -5.1465   -4.8032 H         1 UNK         0.0624 
@<TRIPOS>BOND
     1    1    2 1    
     2    1   72 1    
     3    1   73 1    
     4    1   74 1    
     5    2    3 2    
     6    2    4 am   BACKBONE|DICT|INTERRES
     7    4    5 1    
     8    4   75 1    
     9    5    6 1    
    10    5   35 1    
    11    5   76 1    
    12    6    7 1    
    13    6   77 1    
    14    6   78 1    
    15    7    8 1    
    16    8    9 1    
    17    8   79 1    
    18    8   80 1    
    19    9   10 ar   
    20    9   14 ar   
    21   10   11 ar   
    22   10   81 1    
    23   11   12 ar   
    24   11   71 1    
    25   12   13 ar   
    26   12   82 1    
    27   13   14 ar   
    28   13   15 1    
    29   14   83 1    
    30   15   16 1    
    31   15   84 1    
    32   15   85 1    
    33   16   17 1    
    34   17   18 1    
    35   17   86 1    
    36   17   87 1    
    37   18   19 1    
    38   18   37 1    
    39   18   88 1    
    40   19   20 am   BACKBONE|DICT|INTERRES
    41   19   89 1    
    42   20   21 2    
    43   20   22 1    
    44   22   23 1    
    45   22   24 1    
    46   22   90 1    
    47   23   91 1    
    48   23   92 1    
    49   23   93 1    
    50   24   25 am   BACKBONE|DICT|INTERRES
    51   24   94 1    
    52   25   26 2    
    53   25   27 1    
    54   27   28 1    
    55   27   29 1    
    56   27   95 1    
    57   28   96 1    
    58   28   97 1    
    59   28   98 1    
    60   29   30 am   BACKBONE|DICT|INTERRES
    61   29   99 1    
    62   30   31 2    
    63   30   32 1    
    64   32   33 1    
    65   32   34 1    
    66   32  100 1    
    67   33  101 1    
    68   33  102 1    
    69   33  103 1    
    70   34   35 am   BACKBONE|DICT|INTERRES
    71   34  104 1    
    72   35   36 2    
    73   37   38 2    
    74   37   39 am   BACKBONE|DICT|INTERRES
    75   39   40 1    
    76   39  105 1    
    77   40   41 1    
    78   40   42 1    
    79   40  106 1    
    80   41  107 1    
    81   41  108 1    
    82   41  109 1    
    83   42   43 2    
    84   42   44 am   BACKBONE|DICT|INTERRES
    85   44   45 1    
    86   44  110 1    
    87   45   46 1    
    88   45   47 1    
    89   45  111 1    
    90   46  112 1    
    91   46  113 1    
    92   46  114 1    
    93   47   48 2    
    94   47   49 am   BACKBONE|DICT|INTERRES
    95   49   50 1    
    96   49  115 1    
    97   50   51 1    
    98   50   52 1    
    99   50  116 1    
   100   51  117 1    
   101   51  118 1    
   102   51  119 1    
   103   52   53 2    
   104   52   54 am   BACKBONE|DICT|INTERRES
   105   54   55 1    
   106   54  120 1    
   107   55   56 1    
   108   55   57 1    
   109   55  121 1    
   110   56  122 1    
   111   56  123 1    
   112   56  124 1    
   113   57   58 2    
   114   57   59 am   BACKBONE|DICT|INTERRES
   115   59   60 1    
   116   59  125 1    
   117   60   61 1    
   118   60   62 1    
   119   60  126 1    
   120   61  127 1    
   121   61  128 1    
   122   61  129 1    
   123   62   63 2    
   124   62   64 am   BACKBONE|DICT|INTERRES
   125   64   65 1    
   126   64  130 1    
   127   65   66 1    
   128   65   69 1    
   129   65  131 1    
   130   66   67 am   BACKBONE|DICT|INTERRES
   131   66   68 2    
   132   67  132 1    
   133   67  133 1    
   134   69   70 1    
   135   69  134 1    
   136   69  135 1    
   137   70   71 1    
   138   71  136 1    
   139   71  137 1    
@<TRIPOS>SUBSTRUCTURE
     1 UNK         1 GROUP             0       ****    0 ROOT    
