@<TRIPOS>MOLECULE
3R137
137   139    1
SMALL
USER_CHARGES


@<TRIPOS>ATOM
      1 CA         25.7464   -5.1895    1.3540 C.3       0 UNK        -0.2020 
      2 C          25.9676   -4.7854   -0.0958 C.2       0 UNK         0.4855 
      3 O          25.0459   -4.8878   -0.9049 O.2       0 UNK        -0.5197 
      4 N          27.1795   -4.3122   -0.4250 N.am      1 UNK        -0.4892 
      5 CA         27.6177   -3.8903   -1.7674 C.3       1 UNK         0.0835 
      6 C6         27.5537   -5.0585   -2.7982 C.3       12 UNK        -0.0855 
      7 S7         28.7667   -5.0173   -4.1670 S.3       12 UNK        -0.2931 
      8 C8         30.3892   -5.0505   -3.3194 C.3       12 UNK         0.0378 
      9 C9         31.1911   -3.7503   -3.4352 C.ar      12 UNK        -0.0802 
     10 C10        32.5882   -3.7929   -3.3560 C.ar      12 UNK        -0.0944 
     11 C11        33.3488   -2.6220   -3.4648 C.ar      12 UNK        -0.0787 
     12 C12        32.7039   -1.3937   -3.6282 C.ar      12 UNK        -0.0862 
     13 C13        31.3150   -1.3359   -3.7309 C.ar      12 UNK        -0.0733 
     14 C14        30.5699   -2.5116   -3.6293 C.ar      12 UNK        -0.0832 
     15 C15        30.6171   -0.0218   -4.0333 C.3       12 UNK         0.0240 
     16 S16        29.3594    0.3857   -2.7787 S.3       12 UNK        -0.2522 
     17 C17        28.4343    1.7644   -3.5408 C.3       12 UNK        -0.0967 
     18 CA         28.0729    1.5818   -5.0375 C.3       5 UNK         0.0660 
     19 N          27.4424    0.2900   -5.3409 N.am      5 UNK        -0.4015 
     20 C          27.2776   -0.1914   -6.5821 C.2       4 UNK         0.4946 
     21 O          27.7096    0.3667   -7.5880 O.2       4 UNK        -0.5353 
     22 CA         26.4814   -1.4909   -6.7534 C.3       4 UNK         0.0277 
     23 CB         27.4258   -2.6996   -6.7660 C.3       4 UNK        -0.1981 
     24 N          25.4710   -1.6490   -5.7092 N.am      4 UNK        -0.4209 
     25 C          24.2870   -1.0198   -5.7142 C.2       3 UNK         0.4942 
     26 O          23.9031   -0.2960   -6.6334 O.2       3 UNK        -0.5208 
     27 CA         23.3975   -1.1918   -4.4688 C.3       3 UNK         0.0250 
     28 CB         22.5358   -2.4582   -4.5915 C.3       3 UNK        -0.1990 
     29 N          24.1564   -1.2363   -3.2152 N.am      3 UNK        -0.4232 
     30 C          24.9109   -0.2307   -2.7512 C.2       2 UNK         0.4993 
     31 O          25.0090    0.8625   -3.3093 O.2       2 UNK        -0.5286 
     32 CA         25.7390   -0.4960   -1.4822 C.3       2 UNK         0.0209 
     33 CB         24.9224   -0.1361   -0.2310 C.3       2 UNK        -0.1931 
     34 N          26.2792   -1.8552   -1.3320 N.am      2 UNK        -0.4546 
     35 C          26.9451   -2.5776   -2.2486 C.2       1 UNK         0.5154 
     36 O          27.0652   -2.2221   -3.4206 O.2       1 UNK        -0.5181 
     37 C          27.2140    2.7553   -5.5406 C.2       5 UNK         0.5014 
     38 O          27.7563    3.6794   -6.1467 O.2       5 UNK        -0.5248 
     39 N          25.8911    2.6730   -5.3338 N.am      6 UNK        -0.4434 
     40 CA         24.9016    3.6215   -5.8539 C.3       6 UNK         0.0363 
     41 CB         23.5158    3.2696   -5.2899 C.3       6 UNK        -0.1936 
     42 C          24.8623    3.6735   -7.3926 C.2       6 UNK         0.5081 
     43 O          24.6749    4.7507   -7.9584 O.2       6 UNK        -0.5248 
     44 N          25.0630    2.5174   -8.0390 N.am      7 UNK        -0.4718 
     45 CA         25.1587    2.3815   -9.4947 C.3       7 UNK         0.0273 
     46 CB         24.8027    0.9343   -9.8735 C.3       7 UNK        -0.1935 
     47 C          26.5445    2.7513  -10.0605 C.2       7 UNK         0.5018 
     48 O          26.6608    2.9108  -11.2761 O.2       7 UNK        -0.5186 
     49 N          27.5629    2.8430   -9.1895 N.am      8 UNK        -0.4240 
     50 CA         28.9970    2.9710   -9.4877 C.3       8 UNK         0.0235 
     51 CB         29.3111    4.3469  -10.1119 C.3       8 UNK        -0.2000 
     52 C          29.5247    1.7855  -10.3248 C.2       8 UNK         0.4941 
     53 O          30.2853    1.9837  -11.2744 O.2       8 UNK        -0.5273 
     54 N          29.0762    0.5752   -9.9692 N.am      9 UNK        -0.4262 
     55 CA         29.2548   -0.6584  -10.7358 C.3       9 UNK         0.0264 
     56 CB         27.8791   -1.3351  -10.8750 C.3       9 UNK        -0.1955 
     57 C          30.2699   -1.6339  -10.1153 C.2       9 UNK         0.5031 
     58 O          30.5505   -2.6581  -10.7411 O.2       9 UNK        -0.5390 
     59 N          30.7965   -1.3352   -8.9205 N.am      10 UNK        -0.4204 
     60 CA         31.7667   -2.1700   -8.2101 C.3       10 UNK         0.0237 
     61 CB         31.0572   -2.9446   -7.0883 C.3       10 UNK        -0.1985 
     62 C          32.8949   -1.2996   -7.6474 C.2       10 UNK         0.4970 
     63 O          32.6231   -0.2035   -7.1512 O.2       10 UNK        -0.4914 
     64 N          34.1253   -1.8247   -7.7314 N.am      11 UNK        -0.4285 
     65 CA         35.3901   -1.1999   -7.3059 C.3       11 UNK         0.1007 
     66 C          35.6476    0.1888   -7.9721 C.2       11 UNK         0.5703 
     67 N          36.3456    1.1094   -7.3188 N.am      11 UNK        -0.7361 
     68 O          35.2694    0.4184   -9.1199 O.2       11 UNK        -0.4986 
     69 C69        35.5871   -1.2318   -5.7612 C.3       12 UNK        -0.0947 
     70 S70        35.5746   -2.9294   -5.0837 S.3       12 UNK        -0.2240 
     71 C71        34.8677   -2.6845   -3.4227 C.3       12 UNK         0.0194 
     72 H72        26.6386   -5.0399    1.9617 H         1 UNK         0.0906 
     73 H73        24.9377   -4.6024    1.7882 H         1 UNK         0.0906 
     74 H74        25.4710   -6.2423    1.4109 H         1 UNK         0.0906 
     75 H75        27.8866   -4.2428    0.2955 H         1 UNK         0.3140 
     76 H76        28.6648   -3.6199   -1.6336 H         1 UNK         0.1085 
     77 H77        26.5535   -5.1291   -3.2297 H         1 UNK         0.0836 
     78 H78        27.7111   -6.0093   -2.2865 H         1 UNK         0.0836 
     79 H79        30.9668   -5.8663   -3.7568 H         1 UNK         0.0731 
     80 H80        30.2611   -5.3023   -2.2662 H         1 UNK         0.0731 
     81 H81        33.0892   -4.7424   -3.2240 H         1 UNK         0.1312 
     82 H82        33.2819   -0.4844   -3.7083 H         1 UNK         0.1406 
     83 H83        29.4989   -2.4471   -3.7297 H         1 UNK         0.1631 
     84 H84        30.1648   -0.1341   -5.0170 H         1 UNK         0.0717 
     85 H85        31.3306    0.8003   -4.1073 H         1 UNK         0.0717 
     86 H86        27.5324    1.9181   -2.9461 H         1 UNK         0.0934 
     87 H87        29.0289    2.6710   -3.4121 H         1 UNK         0.0934 
     88 H88        28.9984    1.6356   -5.6133 H         1 UNK         0.0739 
     89 H89        27.1083   -0.2554   -4.5564 H         1 UNK         0.3093 
     90 H90        25.9774   -1.4515   -7.7211 H         1 UNK         0.0818 
     91 H91        28.0378   -2.7408   -5.8654 H         1 UNK         0.0819 
     92 H92        26.8769   -3.6381   -6.8427 H         1 UNK         0.0819 
     93 H93        28.1044   -2.6491   -7.6178 H         1 UNK         0.0819 
     94 H94        25.7640   -2.1501   -4.8754 H         1 UNK         0.3041 
     95 H95        22.7316   -0.3274   -4.4215 H         1 UNK         0.0784 
     96 H96        21.9466   -2.4412   -5.5097 H         1 UNK         0.0793 
     97 H97        23.1456   -3.3625   -4.6117 H         1 UNK         0.0793 
     98 H98        21.8351   -2.5437   -3.7606 H         1 UNK         0.0793 
     99 H99        24.1498   -2.1056   -2.7005 H         1 UNK         0.3024 
    100 H100       26.5979    0.1751   -1.5245 H         1 UNK         0.1171 
    101 H101       25.5358   -0.1746    0.6694 H         1 UNK         0.0786 
    102 H102       24.5217    0.8764   -0.3025 H         1 UNK         0.0786 
    103 H103       24.0779   -0.8124   -0.0923 H         1 UNK         0.0786 
    104 H104       26.2241   -2.2515   -0.4052 H         1 UNK         0.2977 
    105 H105       25.5346    1.9131   -4.7558 H         1 UNK         0.3127 
    106 H106       25.1761    4.6161   -5.4964 H         1 UNK         0.0770 
    107 H107       23.1991    2.2709   -5.5937 H         1 UNK         0.0814 
    108 H108       22.7604    3.9739   -5.6406 H         1 UNK         0.0814 
    109 H109       23.5110    3.3034   -4.2003 H         1 UNK         0.0814 
    110 H110       25.1630    1.6706   -7.4945 H         1 UNK         0.2983 
    111 H111       24.4281    3.0469   -9.9600 H         1 UNK         0.0947 
    112 H112       24.8081    0.7995  -10.9560 H         1 UNK         0.0806 
    113 H113       23.8086    0.6627   -9.5176 H         1 UNK         0.0806 
    114 H114       25.5141    0.2233   -9.4533 H         1 UNK         0.0806 
    115 H115       27.3452    2.6827   -8.2141 H         1 UNK         0.3000 
    116 H116       29.5118    2.9182   -8.5271 H         1 UNK         0.0850 
    117 H117       30.3870    4.4893  -10.2204 H         1 UNK         0.0810 
    118 H118       28.9383    5.1585   -9.4870 H         1 UNK         0.0810 
    119 H119       28.8681    4.4544  -11.1024 H         1 UNK         0.0810 
    120 H120       28.4880    0.5088   -9.1359 H         1 UNK         0.3040 
    121 H121       29.6155   -0.4233  -11.7393 H         1 UNK         0.0766 
    122 H122       27.1661   -0.6790  -11.3745 H         1 UNK         0.0812 
    123 H123       27.4627   -1.6053   -9.9041 H         1 UNK         0.0812 
    124 H124       27.9460   -2.2482  -11.4680 H         1 UNK         0.0812 
    125 H125       30.5793   -0.4463   -8.4899 H         1 UNK         0.3205 
    126 H126       32.2144   -2.8929   -8.8956 H         1 UNK         0.0754 
    127 H127       31.7714   -3.4883   -6.4679 H         1 UNK         0.0769 
    128 H128       30.3578   -3.6759   -7.4930 H         1 UNK         0.0769 
    129 H129       30.4999   -2.2743   -6.4350 H         1 UNK         0.0769 
    130 H130       34.2283   -2.7301   -8.1649 H         1 UNK         0.2981 
    131 H131       36.1684   -1.8339   -7.7317 H         1 UNK         0.0541 
    132 H132       36.6868    0.9407   -6.3861 H         1 UNK         0.3459 
    133 H133       36.5272    1.9937   -7.7672 H         1 UNK         0.3459 
    134 H134       34.8261   -0.6217   -5.2790 H         1 UNK         0.0612 
    135 H135       36.5492   -0.8002   -5.4823 H         1 UNK         0.0612 
    136 H136       35.2799   -1.7787   -2.9753 H         1 UNK         0.0624 
    137 H137       35.1836   -3.5104   -2.7838 H         1 UNK         0.0624 
@<TRIPOS>BOND
     1    1    2 1    
     2    1   72 1    
     3    1   73 1    
     4    1   74 1    
     5    2    3 2    
     6    2    4 am   BACKBONE|DICT|INTERRES
     7    4    5 1    
     8    4   75 1    
     9    5    6 1    
    10    5   35 1    
    11    5   76 1    
    12    6    7 1    
    13    6   77 1    
    14    6   78 1    
    15    7    8 1    
    16    8    9 1    
    17    8   79 1    
    18    8   80 1    
    19    9   10 ar   
    20    9   14 ar   
    21   10   11 ar   
    22   10   81 1    
    23   11   12 ar   
    24   11   71 1    
    25   12   13 ar   
    26   12   82 1    
    27   13   14 ar   
    28   13   15 1    
    29   14   83 1    
    30   15   16 1    
    31   15   84 1    
    32   15   85 1    
    33   16   17 1    
    34   17   18 1    
    35   17   86 1    
    36   17   87 1    
    37   18   19 1    
    38   18   37 1    
    39   18   88 1    
    40   19   20 am   BACKBONE|DICT|INTERRES
    41   19   89 1    
    42   20   21 2    
    43   20   22 1    
    44   22   23 1    
    45   22   24 1    
    46   22   90 1    
    47   23   91 1    
    48   23   92 1    
    49   23   93 1    
    50   24   25 am   BACKBONE|DICT|INTERRES
    51   24   94 1    
    52   25   26 2    
    53   25   27 1    
    54   27   28 1    
    55   27   29 1    
    56   27   95 1    
    57   28   96 1    
    58   28   97 1    
    59   28   98 1    
    60   29   30 am   BACKBONE|DICT|INTERRES
    61   29   99 1    
    62   30   31 2    
    63   30   32 1    
    64   32   33 1    
    65   32   34 1    
    66   32  100 1    
    67   33  101 1    
    68   33  102 1    
    69   33  103 1    
    70   34   35 am   BACKBONE|DICT|INTERRES
    71   34  104 1    
    72   35   36 2    
    73   37   38 2    
    74   37   39 am   BACKBONE|DICT|INTERRES
    75   39   40 1    
    76   39  105 1    
    77   40   41 1    
    78   40   42 1    
    79   40  106 1    
    80   41  107 1    
    81   41  108 1    
    82   41  109 1    
    83   42   43 2    
    84   42   44 am   BACKBONE|DICT|INTERRES
    85   44   45 1    
    86   44  110 1    
    87   45   46 1    
    88   45   47 1    
    89   45  111 1    
    90   46  112 1    
    91   46  113 1    
    92   46  114 1    
    93   47   48 2    
    94   47   49 am   BACKBONE|DICT|INTERRES
    95   49   50 1    
    96   49  115 1    
    97   50   51 1    
    98   50   52 1    
    99   50  116 1    
   100   51  117 1    
   101   51  118 1    
   102   51  119 1    
   103   52   53 2    
   104   52   54 am   BACKBONE|DICT|INTERRES
   105   54   55 1    
   106   54  120 1    
   107   55   56 1    
   108   55   57 1    
   109   55  121 1    
   110   56  122 1    
   111   56  123 1    
   112   56  124 1    
   113   57   58 2    
   114   57   59 am   BACKBONE|DICT|INTERRES
   115   59   60 1    
   116   59  125 1    
   117   60   61 1    
   118   60   62 1    
   119   60  126 1    
   120   61  127 1    
   121   61  128 1    
   122   61  129 1    
   123   62   63 2    
   124   62   64 am   BACKBONE|DICT|INTERRES
   125   64   65 1    
   126   64  130 1    
   127   65   66 1    
   128   65   69 1    
   129   65  131 1    
   130   66   67 am   BACKBONE|DICT|INTERRES
   131   66   68 2    
   132   67  132 1    
   133   67  133 1    
   134   69   70 1    
   135   69  134 1    
   136   69  135 1    
   137   70   71 1    
   138   71  136 1    
   139   71  137 1    
@<TRIPOS>SUBSTRUCTURE
     1 UNK         1 GROUP             0       ****    0 ROOT    
