@<TRIPOS>MOLECULE
3R137
137   139    1
SMALL
USER_CHARGES


@<TRIPOS>ATOM
      1 CA         24.0718   -6.9354   -5.4339 C.3       0 UNK        -0.2020 
      2 C          24.3754   -6.7236   -3.9583 C.2       0 UNK         0.4855 
      3 O          23.7294   -7.3338   -3.1061 O.2       0 UNK        -0.5197 
      4 N          25.3561   -5.8647   -3.6509 N.am      1 UNK        -0.4892 
      5 CA         25.7917   -5.5395   -2.2843 C.3       1 UNK         0.0835 
      6 C6         27.1318   -4.7611   -2.2668 C.3       12 UNK        -0.0855 
      7 S7         28.4822   -5.5931   -3.1715 S.3       12 UNK        -0.2931 
      8 C8         28.7070   -4.4757   -4.5955 C.3       12 UNK         0.0378 
      9 C9         29.7495   -3.3873   -4.3534 C.ar      12 UNK        -0.0802 
     10 C10        30.8333   -3.2656   -5.2293 C.ar      12 UNK        -0.0944 
     11 C11        31.7609   -2.2324   -5.0759 C.ar      12 UNK        -0.0787 
     12 C12        31.6166   -1.3275   -4.0218 C.ar      12 UNK        -0.0862 
     13 C13        30.5440   -1.4363   -3.1339 C.ar      12 UNK        -0.0733 
     14 C14        29.6173   -2.4704   -3.3022 C.ar      12 UNK        -0.0832 
     15 C15        30.3952   -0.4206   -2.0052 C.3       12 UNK         0.0240 
     16 S16        28.7600    0.3901   -1.9461 S.3       12 UNK        -0.2522 
     17 C17        28.5039    0.9552   -3.6659 C.3       12 UNK        -0.0967 
     18 CA         27.1680    0.3924   -4.2290 C.3       5 UNK         0.0660 
     19 N          25.9892    0.8824   -3.5004 N.am      5 UNK        -0.4015 
     20 C          25.5099    2.1385   -3.5150 C.2       4 UNK         0.4946 
     21 O          26.0384    3.0691   -4.1259 O.2       4 UNK        -0.5353 
     22 CA         24.2144    2.4260   -2.7302 C.3       4 UNK         0.0277 
     23 CB         23.0083    2.4507   -3.6839 C.3       4 UNK        -0.1981 
     24 N          23.9521    1.4689   -1.6553 N.am      4 UNK        -0.4209 
     25 C          24.6602    1.3753   -0.5215 C.2       3 UNK         0.4942 
     26 O          25.5466    2.1688   -0.2034 O.2       3 UNK        -0.5208 
     27 CA         24.3373    0.1954    0.4173 C.3       3 UNK         0.0250 
     28 CB         23.5509    0.6871    1.6441 C.3       3 UNK        -0.1990 
     29 N          23.6082   -0.9222   -0.2012 N.am      3 UNK        -0.4232 
     30 C          24.0436   -1.6616   -1.2307 C.2       2 UNK         0.4993 
     31 O          25.0778   -1.4219   -1.8613 O.2       2 UNK        -0.5286 
     32 CA         23.1449   -2.8315   -1.6658 C.3       2 UNK         0.0209 
     33 CB         22.1303   -2.3636   -2.7221 C.3       2 UNK        -0.1931 
     34 N          23.9595   -3.9065   -2.2304 N.am      2 UNK        -0.4546 
     35 C          24.7424   -4.7188   -1.5064 C.2       1 UNK         0.5154 
     36 O          24.6931   -4.7997   -0.2776 O.2       1 UNK        -0.5181 
     37 C          26.9625    0.5653   -5.7526 C.2       5 UNK         0.5014 
     38 O          25.9230    0.1264   -6.2507 O.2       5 UNK        -0.5248 
     39 N          27.9213    1.1819   -6.4651 N.am      6 UNK        -0.4434 
     40 CA         27.8598    1.5316   -7.8936 C.3       6 UNK         0.0363 
     41 CB         26.8219    2.6501   -8.1266 C.3       6 UNK        -0.1936 
     42 C          27.6619    0.3308   -8.8454 C.2       6 UNK         0.5081 
     43 O          27.0429    0.4784   -9.9002 O.2       6 UNK        -0.5248 
     44 N          28.2115   -0.8352   -8.4741 N.am      7 UNK        -0.4718 
     45 CA         28.1972   -2.0662   -9.2764 C.3       7 UNK         0.0273 
     46 CB         28.6467   -3.2396   -8.3909 C.3       7 UNK        -0.1935 
     47 C          29.0633   -1.9898  -10.5515 C.2       7 UNK         0.5018 
     48 O          28.8425   -2.7641  -11.4834 O.2       7 UNK        -0.5186 
     49 N          30.0203   -1.0587  -10.5679 N.am      8 UNK        -0.4240 
     50 CA         30.9085   -0.7067  -11.6678 C.3       8 UNK         0.0235 
     51 CB         32.1159   -1.6627  -11.6904 C.3       8 UNK        -0.2000 
     52 C          31.3466    0.7472  -11.4455 C.2       8 UNK         0.4941 
     53 O          31.0795    1.3055  -10.3773 O.2       8 UNK        -0.5273 
     54 N          32.0454    1.3333  -12.4273 N.am      9 UNK        -0.4262 
     55 CA         32.5522    2.7137  -12.3792 C.3       9 UNK         0.0264 
     56 CB         33.2222    3.0605  -13.7186 C.3       9 UNK        -0.1955 
     57 C          33.5131    2.9962  -11.2067 C.2       9 UNK         0.5031 
     58 O          33.5169    4.1096  -10.6801 O.2       9 UNK        -0.5390 
     59 N          34.2806    1.9770  -10.7974 N.am      10 UNK        -0.4204 
     60 CA         35.1669    2.0093   -9.6305 C.3       10 UNK         0.0237 
     61 CB         36.1866    0.8644   -9.7534 C.3       10 UNK        -0.1985 
     62 C          34.4234    1.9175   -8.2825 C.2       10 UNK         0.4970 
     63 O          35.0272    2.2158   -7.2514 O.2       10 UNK        -0.4914 
     64 N          33.1532    1.4953   -8.3021 N.am      11 UNK        -0.4285 
     65 CA         32.3053    1.2868   -7.1194 C.3       11 UNK         0.1007 
     66 C          31.4535    2.5312   -6.7335 C.2       11 UNK         0.5703 
     67 N          31.6173    3.6811   -7.3763 N.am      11 UNK        -0.7361 
     68 O          30.6117    2.4460   -5.8415 O.2       11 UNK        -0.4986 
     69 C69        31.4079    0.0333   -7.2855 C.3       12 UNK        -0.0947 
     70 S70        32.3184   -1.4945   -7.6993 S.3       12 UNK        -0.2240 
     71 C71        32.9005   -2.0660   -6.0699 C.3       12 UNK         0.0194 
     72 H72        24.2056   -7.9843   -5.6972 H         1 UNK         0.0906 
     73 H73        23.0395   -6.6596   -5.6477 H         1 UNK         0.0906 
     74 H74        24.7216   -6.3401   -6.0751 H         1 UNK         0.0906 
     75 H75        25.8765   -5.4200   -4.3927 H         1 UNK         0.3140 
     76 H76        25.9327   -6.4794   -1.7456 H         1 UNK         0.1085 
     77 H77        26.9774   -3.7605   -2.6738 H         1 UNK         0.0836 
     78 H78        27.4703   -4.6154   -1.2387 H         1 UNK         0.0836 
     79 H79        27.7591   -4.0125   -4.8717 H         1 UNK         0.0731 
     80 H80        28.9964   -5.0885   -5.4508 H         1 UNK         0.0731 
     81 H81        30.9444   -3.9568   -6.0536 H         1 UNK         0.1312 
     82 H82        32.3310   -0.5238   -3.9061 H         1 UNK         0.1406 
     83 H83        28.7883   -2.5400   -2.6152 H         1 UNK         0.1631 
     84 H84        31.1556    0.3579   -2.0847 H         1 UNK         0.0717 
     85 H85        30.5712   -0.9236   -1.0536 H         1 UNK         0.0717 
     86 H86        28.5143    2.0463   -3.6841 H         1 UNK         0.0934 
     87 H87        29.3508    0.6348   -4.2721 H         1 UNK         0.0934 
     88 H88        27.1801   -0.6878   -4.0735 H         1 UNK         0.0739 
     89 H89        25.5059    0.1773   -2.9518 H         1 UNK         0.3093 
     90 H90        24.3175    3.4171   -2.2829 H         1 UNK         0.0818 
     91 H91        23.1573    3.1805   -4.4811 H         1 UNK         0.0819 
     92 H92        22.8475    1.4812   -4.1575 H         1 UNK         0.0819 
     93 H93        22.0925    2.7277   -3.1612 H         1 UNK         0.0819 
     94 H94        23.2330    0.7810   -1.8219 H         1 UNK         0.3041 
     95 H95        25.2956   -0.1987    0.7625 H         1 UNK         0.0784 
     96 H96        24.0798    1.4962    2.1502 H         1 UNK         0.0793 
     97 H97        22.5662    1.0657    1.3668 H         1 UNK         0.0793 
     98 H98        23.4125   -0.1104    2.3745 H         1 UNK         0.0793 
     99 H99        22.7329   -1.1739    0.2363 H         1 UNK         0.3024 
    100 H100       22.6074   -3.2162   -0.7957 H         1 UNK         0.1171 
    101 H101       22.6238   -1.9541   -3.6048 H         1 UNK         0.0786 
    102 H102       21.4904   -3.1844   -3.0470 H         1 UNK         0.0786 
    103 H103       21.4777   -1.5860   -2.3227 H         1 UNK         0.0786 
    104 H104       24.0929   -3.8959   -3.2307 H         1 UNK         0.2977 
    105 H105       28.7403    1.5329   -5.9782 H         1 UNK         0.3127 
    106 H106       28.8364    1.9457   -8.1472 H         1 UNK         0.0770 
    107 H107       25.8041    2.2979   -7.9557 H         1 UNK         0.0814 
    108 H108       26.8699    3.0246   -9.1498 H         1 UNK         0.0814 
    109 H109       26.9980    3.4979   -7.4645 H         1 UNK         0.0814 
    110 H110       28.6785   -0.8820   -7.5807 H         1 UNK         0.2983 
    111 H111       27.1684   -2.2488   -9.5946 H         1 UNK         0.0947 
    112 H112       29.6723   -3.1105   -8.0441 H         1 UNK         0.0806 
    113 H113       28.6057   -4.1813   -8.9401 H         1 UNK         0.0806 
    114 H114       28.0051   -3.3474   -7.5164 H         1 UNK         0.0806 
    115 H115       30.0911   -0.4239   -9.7831 H         1 UNK         0.3000 
    116 H116       30.3602   -0.7667  -12.6102 H         1 UNK         0.0850 
    117 H117       32.7806   -1.4448  -12.5268 H         1 UNK         0.0810 
    118 H118       31.7975   -2.6999  -11.7974 H         1 UNK         0.0810 
    119 H119       32.7046   -1.5899  -10.7751 H         1 UNK         0.0810 
    120 H120       32.2273    0.8131  -13.2742 H         1 UNK         0.3040 
    121 H121       31.6894    3.3708  -12.2507 H         1 UNK         0.0766 
    122 H122       34.0750    2.4125  -13.9250 H         1 UNK         0.0812 
    123 H123       33.5874    4.0886  -13.7174 H         1 UNK         0.0812 
    124 H124       32.5216    2.9701  -14.5490 H         1 UNK         0.0812 
    125 H125       34.2152    1.1016  -11.2961 H         1 UNK         0.3205 
    126 H126       35.7122    2.9556   -9.6376 H         1 UNK         0.0754 
    127 H127       36.7692    0.9474  -10.6711 H         1 UNK         0.0769 
    128 H128       35.6999   -0.1120   -9.7496 H         1 UNK         0.0769 
    129 H129       36.8930    0.8787   -8.9221 H         1 UNK         0.0769 
    130 H130       32.6892    1.3397   -9.1895 H         1 UNK         0.2981 
    131 H131       32.9497    1.1026   -6.2584 H         1 UNK         0.0541 
    132 H132       31.0551    4.4750   -7.1150 H         1 UNK         0.3459 
    133 H133       32.2856    3.7586   -8.1271 H         1 UNK         0.3459 
    134 H134       30.6952    0.2064   -8.0873 H         1 UNK         0.0612 
    135 H135       30.8021   -0.1373   -6.3962 H         1 UNK         0.0612 
    136 H136       33.4149   -3.0198   -6.1938 H         1 UNK         0.0624 
    137 H137       33.6450   -1.3622   -5.6950 H         1 UNK         0.0624 
@<TRIPOS>BOND
     1    1    2 1    
     2    1   72 1    
     3    1   73 1    
     4    1   74 1    
     5    2    3 2    
     6    2    4 am   BACKBONE|DICT|INTERRES
     7    4    5 1    
     8    4   75 1    
     9    5    6 1    
    10    5   35 1    
    11    5   76 1    
    12    6    7 1    
    13    6   77 1    
    14    6   78 1    
    15    7    8 1    
    16    8    9 1    
    17    8   79 1    
    18    8   80 1    
    19    9   10 ar   
    20    9   14 ar   
    21   10   11 ar   
    22   10   81 1    
    23   11   12 ar   
    24   11   71 1    
    25   12   13 ar   
    26   12   82 1    
    27   13   14 ar   
    28   13   15 1    
    29   14   83 1    
    30   15   16 1    
    31   15   84 1    
    32   15   85 1    
    33   16   17 1    
    34   17   18 1    
    35   17   86 1    
    36   17   87 1    
    37   18   19 1    
    38   18   37 1    
    39   18   88 1    
    40   19   20 am   BACKBONE|DICT|INTERRES
    41   19   89 1    
    42   20   21 2    
    43   20   22 1    
    44   22   23 1    
    45   22   24 1    
    46   22   90 1    
    47   23   91 1    
    48   23   92 1    
    49   23   93 1    
    50   24   25 am   BACKBONE|DICT|INTERRES
    51   24   94 1    
    52   25   26 2    
    53   25   27 1    
    54   27   28 1    
    55   27   29 1    
    56   27   95 1    
    57   28   96 1    
    58   28   97 1    
    59   28   98 1    
    60   29   30 am   BACKBONE|DICT|INTERRES
    61   29   99 1    
    62   30   31 2    
    63   30   32 1    
    64   32   33 1    
    65   32   34 1    
    66   32  100 1    
    67   33  101 1    
    68   33  102 1    
    69   33  103 1    
    70   34   35 am   BACKBONE|DICT|INTERRES
    71   34  104 1    
    72   35   36 2    
    73   37   38 2    
    74   37   39 am   BACKBONE|DICT|INTERRES
    75   39   40 1    
    76   39  105 1    
    77   40   41 1    
    78   40   42 1    
    79   40  106 1    
    80   41  107 1    
    81   41  108 1    
    82   41  109 1    
    83   42   43 2    
    84   42   44 am   BACKBONE|DICT|INTERRES
    85   44   45 1    
    86   44  110 1    
    87   45   46 1    
    88   45   47 1    
    89   45  111 1    
    90   46  112 1    
    91   46  113 1    
    92   46  114 1    
    93   47   48 2    
    94   47   49 am   BACKBONE|DICT|INTERRES
    95   49   50 1    
    96   49  115 1    
    97   50   51 1    
    98   50   52 1    
    99   50  116 1    
   100   51  117 1    
   101   51  118 1    
   102   51  119 1    
   103   52   53 2    
   104   52   54 am   BACKBONE|DICT|INTERRES
   105   54   55 1    
   106   54  120 1    
   107   55   56 1    
   108   55   57 1    
   109   55  121 1    
   110   56  122 1    
   111   56  123 1    
   112   56  124 1    
   113   57   58 2    
   114   57   59 am   BACKBONE|DICT|INTERRES
   115   59   60 1    
   116   59  125 1    
   117   60   61 1    
   118   60   62 1    
   119   60  126 1    
   120   61  127 1    
   121   61  128 1    
   122   61  129 1    
   123   62   63 2    
   124   62   64 am   BACKBONE|DICT|INTERRES
   125   64   65 1    
   126   64  130 1    
   127   65   66 1    
   128   65   69 1    
   129   65  131 1    
   130   66   67 am   BACKBONE|DICT|INTERRES
   131   66   68 2    
   132   67  132 1    
   133   67  133 1    
   134   69   70 1    
   135   69  134 1    
   136   69  135 1    
   137   70   71 1    
   138   71  136 1    
   139   71  137 1    
@<TRIPOS>SUBSTRUCTURE
     1 UNK         1 GROUP             0       ****    0 ROOT    
