@<TRIPOS>MOLECULE
3R137
137   139    1
SMALL
USER_CHARGES


@<TRIPOS>ATOM
      1 CA         23.8358   -5.9182   -2.3995 C.3       0 UNK        -0.2020 
      2 C          24.6623   -4.6462   -2.3016 C.2       0 UNK         0.4855 
      3 O          24.5564   -3.7862   -3.1758 O.2       0 UNK        -0.5197 
      4 N          25.4655   -4.5139   -1.2356 N.am      1 UNK        -0.4892 
      5 CA         26.4074   -3.4147   -0.9599 C.3       1 UNK         0.0835 
      6 C6         27.6745   -3.4589   -1.8469 C.3       12 UNK        -0.0855 
      7 S7         28.6419   -4.9976   -1.6962 S.3       12 UNK        -0.2931 
      8 C8         29.4810   -5.0680   -3.3243 C.3       12 UNK         0.0378 
      9 C9         30.2927   -3.8286   -3.7204 C.ar      12 UNK        -0.0802 
     10 C10        30.6063   -3.6321   -5.0701 C.ar      12 UNK        -0.0944 
     11 C11        31.3408   -2.5145   -5.4803 C.ar      12 UNK        -0.0787 
     12 C12        31.7398   -1.5665   -4.5348 C.ar      12 UNK        -0.0862 
     13 C13        31.4081   -1.7305   -3.1880 C.ar      12 UNK        -0.0733 
     14 C14        30.7330   -2.8843   -2.7837 C.ar      12 UNK        -0.0832 
     15 C15        31.7447   -0.6514   -2.1671 C.3       12 UNK         0.0240 
     16 S16        30.8744    0.9241   -2.4888 S.3       12 UNK        -0.2522 
     17 C17        29.1248    0.4288   -2.7173 C.3       12 UNK        -0.0967 
     18 CA         28.7155    0.3959   -4.2155 C.3       5 UNK         0.0660 
     19 N          27.6624   -0.5916   -4.4948 N.am      5 UNK        -0.4015 
     20 C          27.4263   -1.0652   -5.7289 C.2       4 UNK         0.4946 
     21 O          28.0793   -0.7310   -6.7160 O.2       4 UNK        -0.5353 
     22 CA         26.2304   -2.0040   -5.9440 C.3       4 UNK         0.0277 
     23 CB         26.6588   -3.4796   -5.9336 C.3       4 UNK        -0.1981 
     24 N          25.0980   -1.7926   -5.0384 N.am      4 UNK        -0.4209 
     25 C          24.3565   -0.6760   -5.0018 C.2       3 UNK         0.4942 
     26 O          24.6731    0.3685   -5.5699 O.2       3 UNK        -0.5208 
     27 CA         23.0433   -0.7325   -4.2140 C.3       3 UNK         0.0250 
     28 CB         22.0745   -1.7616   -4.8225 C.3       3 UNK        -0.1990 
     29 N          23.3036   -1.0672   -2.8184 N.am      3 UNK        -0.4232 
     30 C          23.3050   -0.1837   -1.8109 C.2       2 UNK         0.4993 
     31 O          23.0011    1.0033   -1.9368 O.2       2 UNK        -0.5286 
     32 CA         23.7161   -0.6991   -0.4178 C.3       2 UNK         0.0209 
     33 CB         22.4723   -0.9447    0.4524 C.3       2 UNK        -0.1931 
     34 N          24.5325   -1.9176   -0.4397 N.am      2 UNK        -0.4546 
     35 C          25.7460   -2.0175   -1.0003 C.2       1 UNK         0.5154 
     36 O          26.3103   -1.0783   -1.5690 O.2       1 UNK        -0.5181 
     37 C          28.3935    1.8000   -4.7843 C.2       5 UNK         0.5014 
     38 O          29.3101    2.6091   -4.9281 O.2       5 UNK        -0.5248 
     39 N          27.1233    2.0662   -5.1256 N.am      6 UNK        -0.4434 
     40 CA         26.6962    3.2677   -5.8411 C.3       6 UNK         0.0363 
     41 CB         25.4010    3.8095   -5.2126 C.3       6 UNK        -0.1936 
     42 C          26.4949    2.9630   -7.3331 C.2       6 UNK         0.5081 
     43 O          27.0203    3.6886   -8.1768 O.2       6 UNK        -0.5248 
     44 N          25.7361    1.9006   -7.6365 N.am      7 UNK        -0.4718 
     45 CA         25.3134    1.5307   -8.9901 C.3       7 UNK         0.0273 
     46 CB         24.1908    0.4841   -8.9007 C.3       7 UNK        -0.1935 
     47 C          26.4476    1.0248   -9.8961 C.2       7 UNK         0.5018 
     48 O          26.3775    1.2344  -11.1078 O.2       7 UNK        -0.5186 
     49 N          27.4605    0.3759   -9.3097 N.am      8 UNK        -0.4240 
     50 CA         28.6242   -0.1727  -10.0056 C.3       8 UNK         0.0235 
     51 CB         28.5352   -1.7113  -10.0086 C.3       8 UNK        -0.2000 
     52 C          29.9229    0.3389   -9.3640 C.2       8 UNK         0.4941 
     53 O          30.9184   -0.3851   -9.3564 O.2       8 UNK        -0.5273 
     54 N          29.9045    1.5857   -8.8617 N.am      9 UNK        -0.4262 
     55 CA         30.9800    2.2557   -8.1120 C.3       9 UNK         0.0264 
     56 CB         30.5834    3.7209   -7.8701 C.3       9 UNK        -0.1955 
     57 C          32.3815    2.1985   -8.7496 C.2       9 UNK         0.5031 
     58 O          33.3764    2.2069   -8.0226 O.2       9 UNK        -0.5390 
     59 N          32.4356    2.0966  -10.0854 N.am      10 UNK        -0.4204 
     60 CA         33.6431    1.8868  -10.8879 C.3       10 UNK         0.0237 
     61 CB         33.2594    1.8870  -12.3769 C.3       10 UNK        -0.1985 
     62 C          34.4373    0.6114  -10.5378 C.2       10 UNK         0.4970 
     63 O          35.6296    0.5634  -10.8444 O.2       10 UNK        -0.4914 
     64 N          33.7960   -0.3809   -9.8987 N.am      11 UNK        -0.4285 
     65 CA         34.4654   -1.5619   -9.3282 C.3       11 UNK         0.1007 
     66 C          35.4099   -1.2394   -8.1261 C.2       11 UNK         0.5703 
     67 N          35.2862   -0.0917   -7.4656 N.am      11 UNK        -0.7361 
     68 O          36.2898   -2.0361   -7.8076 O.2       11 UNK        -0.4986 
     69 C69        33.4588   -2.7434   -9.1074 C.3       12 UNK        -0.0947 
     70 S70        33.1393   -3.3184   -7.3988 S.3       12 UNK        -0.2240 
     71 C71        31.6922   -2.3203   -6.9456 C.3       12 UNK         0.0194 
     72 H72        24.0805   -6.4511   -3.3178 H         1 UNK         0.0906 
     73 H73        24.0151   -6.5888   -1.5595 H         1 UNK         0.0906 
     74 H74        22.7741   -5.6738   -2.4200 H         1 UNK         0.0906 
     75 H75        25.4877   -5.2626   -0.5565 H         1 UNK         0.3140 
     76 H76        26.7322   -3.5463    0.0738 H         1 UNK         0.1085 
     77 H77        28.3345   -2.6418   -1.5604 H         1 UNK         0.0836 
     78 H78        27.4151   -3.2884   -2.8895 H         1 UNK         0.0836 
     79 H79        28.7237   -5.2641   -4.0846 H         1 UNK         0.0731 
     80 H80        30.1481   -5.9309   -3.3283 H         1 UNK         0.0731 
     81 H81        30.2868   -4.3560   -5.8075 H         1 UNK         0.1312 
     82 H82        32.2813   -0.6843   -4.8488 H         1 UNK         0.1406 
     83 H83        30.5271   -3.0242   -1.7328 H         1 UNK         0.1631 
     84 H84        32.8202   -0.4700   -2.1785 H         1 UNK         0.0717 
     85 H85        31.5009   -0.9822   -1.1564 H         1 UNK         0.0717 
     86 H86        28.9915   -0.5519   -2.2634 H         1 UNK         0.0934 
     87 H87        28.4803    1.1003   -2.1468 H         1 UNK         0.0934 
     88 H88        29.5868    0.0593   -4.7793 H         1 UNK         0.0739 
     89 H89        27.0703   -0.8696   -3.7214 H         1 UNK         0.3093 
     90 H90        25.8645   -1.7924   -6.9505 H         1 UNK         0.0818 
     91 H91        27.5238   -3.6418   -6.5787 H         1 UNK         0.0819 
     92 H92        26.9254   -3.8245   -4.9381 H         1 UNK         0.0819 
     93 H93        25.8583   -4.1225   -6.2997 H         1 UNK         0.0819 
     94 H94        24.8135   -2.5908   -4.4708 H         1 UNK         0.3041 
     95 H95        22.5716    0.2497   -4.2904 H         1 UNK         0.0784 
     96 H96        21.8934   -1.5506   -5.8774 H         1 UNK         0.0793 
     97 H97        22.4574   -2.7806   -4.7534 H         1 UNK         0.0793 
     98 H98        21.1087   -1.7364   -4.3176 H         1 UNK         0.0793 
     99 H99        23.6173   -2.0140   -2.6351 H         1 UNK         0.3024 
    100 H100       24.3127    0.0893    0.0470 H         1 UNK         0.1171 
    101 H101       22.7471   -1.2167    1.4717 H         1 UNK         0.0786 
    102 H102       21.8555   -0.0469    0.5147 H         1 UNK         0.0786 
    103 H103       21.8474   -1.7416    0.0470 H         1 UNK         0.0786 
    104 H104       24.1319   -2.7444   -0.0197 H         1 UNK         0.2977 
    105 H105       26.4224    1.3417   -5.0159 H         1 UNK         0.3127 
    106 H106       27.4537    4.0504   -5.7609 H         1 UNK         0.0770 
    107 H107       24.5905    3.0806   -5.2473 H         1 UNK         0.0814 
    108 H108       25.0587    4.7030   -5.7362 H         1 UNK         0.0814 
    109 H109       25.5554    4.0848   -4.1693 H         1 UNK         0.0814 
    110 H110       25.3336    1.3541   -6.8755 H         1 UNK         0.2983 
    111 H111       24.9023    2.4263   -9.4614 H         1 UNK         0.0947 
    112 H112       24.5336   -0.4366   -8.4288 H         1 UNK         0.0806 
    113 H113       23.8191    0.2236   -9.8926 H         1 UNK         0.0806 
    114 H114       23.3438    0.8586   -8.3255 H         1 UNK         0.0806 
    115 H115       27.4570    0.2324   -8.3025 H         1 UNK         0.3000 
    116 H116       28.6457    0.1673  -11.0428 H         1 UNK         0.0850 
    117 H117       29.3581   -2.1521  -10.5727 H         1 UNK         0.0810 
    118 H118       27.6083   -2.0538  -10.4685 H         1 UNK         0.0810 
    119 H119       28.5784   -2.1176   -8.9975 H         1 UNK         0.0810 
    120 H120       29.0359    2.0982   -8.9336 H         1 UNK         0.3040 
    121 H121       31.0475    1.7536   -7.1447 H         1 UNK         0.0766 
    122 H122       29.6471    3.7951   -7.3182 H         1 UNK         0.0812 
    123 H123       30.4638    4.2678   -8.8060 H         1 UNK         0.0812 
    124 H124       31.3415    4.2392   -7.2811 H         1 UNK         0.0812 
    125 H125       31.5580    2.0849  -10.5837 H         1 UNK         0.3205 
    126 H126       34.3049    2.7354  -10.7032 H         1 UNK         0.0754 
    127 H127       34.1410    1.7658  -13.0082 H         1 UNK         0.0769 
    128 H128       32.7848    2.8251  -12.6657 H         1 UNK         0.0769 
    129 H129       32.5731    1.0735  -12.6160 H         1 UNK         0.0769 
    130 H130       32.8053   -0.2839   -9.6895 H         1 UNK         0.2981 
    131 H131       35.1453   -1.9039  -10.1115 H         1 UNK         0.0541 
    132 H132       35.9121    0.1024   -6.7009 H         1 UNK         0.3459 
    133 H133       34.5859    0.5933   -7.7281 H         1 UNK         0.3459 
    134 H134       32.5008   -2.5401   -9.5882 H         1 UNK         0.0612 
    135 H135       33.8426   -3.6169   -9.6363 H         1 UNK         0.0612 
    136 H136       31.9117   -1.2696   -7.1395 H         1 UNK         0.0624 
    137 H137       30.8428   -2.5876   -7.5762 H         1 UNK         0.0624 
@<TRIPOS>BOND
     1    1    2 1    
     2    1   72 1    
     3    1   73 1    
     4    1   74 1    
     5    2    3 2    
     6    2    4 am   BACKBONE|DICT|INTERRES
     7    4    5 1    
     8    4   75 1    
     9    5    6 1    
    10    5   35 1    
    11    5   76 1    
    12    6    7 1    
    13    6   77 1    
    14    6   78 1    
    15    7    8 1    
    16    8    9 1    
    17    8   79 1    
    18    8   80 1    
    19    9   10 ar   
    20    9   14 ar   
    21   10   11 ar   
    22   10   81 1    
    23   11   12 ar   
    24   11   71 1    
    25   12   13 ar   
    26   12   82 1    
    27   13   14 ar   
    28   13   15 1    
    29   14   83 1    
    30   15   16 1    
    31   15   84 1    
    32   15   85 1    
    33   16   17 1    
    34   17   18 1    
    35   17   86 1    
    36   17   87 1    
    37   18   19 1    
    38   18   37 1    
    39   18   88 1    
    40   19   20 am   BACKBONE|DICT|INTERRES
    41   19   89 1    
    42   20   21 2    
    43   20   22 1    
    44   22   23 1    
    45   22   24 1    
    46   22   90 1    
    47   23   91 1    
    48   23   92 1    
    49   23   93 1    
    50   24   25 am   BACKBONE|DICT|INTERRES
    51   24   94 1    
    52   25   26 2    
    53   25   27 1    
    54   27   28 1    
    55   27   29 1    
    56   27   95 1    
    57   28   96 1    
    58   28   97 1    
    59   28   98 1    
    60   29   30 am   BACKBONE|DICT|INTERRES
    61   29   99 1    
    62   30   31 2    
    63   30   32 1    
    64   32   33 1    
    65   32   34 1    
    66   32  100 1    
    67   33  101 1    
    68   33  102 1    
    69   33  103 1    
    70   34   35 am   BACKBONE|DICT|INTERRES
    71   34  104 1    
    72   35   36 2    
    73   37   38 2    
    74   37   39 am   BACKBONE|DICT|INTERRES
    75   39   40 1    
    76   39  105 1    
    77   40   41 1    
    78   40   42 1    
    79   40  106 1    
    80   41  107 1    
    81   41  108 1    
    82   41  109 1    
    83   42   43 2    
    84   42   44 am   BACKBONE|DICT|INTERRES
    85   44   45 1    
    86   44  110 1    
    87   45   46 1    
    88   45   47 1    
    89   45  111 1    
    90   46  112 1    
    91   46  113 1    
    92   46  114 1    
    93   47   48 2    
    94   47   49 am   BACKBONE|DICT|INTERRES
    95   49   50 1    
    96   49  115 1    
    97   50   51 1    
    98   50   52 1    
    99   50  116 1    
   100   51  117 1    
   101   51  118 1    
   102   51  119 1    
   103   52   53 2    
   104   52   54 am   BACKBONE|DICT|INTERRES
   105   54   55 1    
   106   54  120 1    
   107   55   56 1    
   108   55   57 1    
   109   55  121 1    
   110   56  122 1    
   111   56  123 1    
   112   56  124 1    
   113   57   58 2    
   114   57   59 am   BACKBONE|DICT|INTERRES
   115   59   60 1    
   116   59  125 1    
   117   60   61 1    
   118   60   62 1    
   119   60  126 1    
   120   61  127 1    
   121   61  128 1    
   122   61  129 1    
   123   62   63 2    
   124   62   64 am   BACKBONE|DICT|INTERRES
   125   64   65 1    
   126   64  130 1    
   127   65   66 1    
   128   65   69 1    
   129   65  131 1    
   130   66   67 am   BACKBONE|DICT|INTERRES
   131   66   68 2    
   132   67  132 1    
   133   67  133 1    
   134   69   70 1    
   135   69  134 1    
   136   69  135 1    
   137   70   71 1    
   138   71  136 1    
   139   71  137 1    
@<TRIPOS>SUBSTRUCTURE
     1 UNK         1 GROUP             0       ****    0 ROOT    
