@<TRIPOS>MOLECULE
3R137
137   139    1
SMALL
USER_CHARGES


@<TRIPOS>ATOM
      1 CA         27.4071   -4.0254    2.6047 C.3       0 UNK        -0.2020 
      2 C          27.9322   -3.8814    1.1841 C.2       0 UNK         0.4855 
      3 O          29.0834   -3.4912    0.9959 O.2       0 UNK        -0.5197 
      4 N          27.0984   -4.1965    0.1871 N.am      1 UNK        -0.4892 
      5 CA         27.4163   -4.1167   -1.2437 C.3       1 UNK         0.0835 
      6 C6         28.1955   -5.3741   -1.7251 C.3       12 UNK        -0.0855 
      7 S7         29.2920   -5.1026   -3.1601 S.3       12 UNK        -0.2931 
      8 C8         30.7578   -4.2981   -2.4288 C.3       12 UNK         0.0378 
      9 C9         30.8096   -2.8202   -2.7930 C.ar      12 UNK        -0.0802 
     10 C10        31.3756   -2.4057   -4.0024 C.ar      12 UNK        -0.0944 
     11 C11        31.4023   -1.0491   -4.3483 C.ar      12 UNK        -0.0787 
     12 C12        30.8179   -0.1079   -3.4947 C.ar      12 UNK        -0.0862 
     13 C13        30.2377   -0.5142   -2.2899 C.ar      12 UNK        -0.0733 
     14 C14        30.2801   -1.8620   -1.9278 C.ar      12 UNK        -0.0832 
     15 C15        29.5391    0.4787   -1.3744 C.3       12 UNK         0.0240 
     16 S16        27.7489    0.1363   -1.3136 S.3       12 UNK        -0.2522 
     17 C17        27.0507    1.4455   -2.3737 C.3       12 UNK        -0.0967 
     18 CA         27.4163    1.3514   -3.8779 C.3       5 UNK         0.0660 
     19 N          27.1668    0.0304   -4.4618 N.am      5 UNK        -0.4015 
     20 C          27.6568   -0.3736   -5.6448 C.2       4 UNK         0.4946 
     21 O          28.3905    0.3152   -6.3542 O.2       4 UNK        -0.5353 
     22 CA         27.2278   -1.7602   -6.1534 C.3       4 UNK         0.0277 
     23 CB         28.1861   -2.8322   -5.6263 C.3       4 UNK        -0.1981 
     24 N          25.8533   -2.1103   -5.7896 N.am      4 UNK        -0.4209 
     25 C          24.7714   -1.4442   -6.2191 C.2       3 UNK         0.4942 
     26 O          24.8225   -0.5025   -7.0081 O.2       3 UNK        -0.5208 
     27 CA         23.4059   -1.8482   -5.6385 C.3       3 UNK         0.0250 
     28 CB         22.7010   -2.8440   -6.5725 C.3       3 UNK        -0.1990 
     29 N          23.4613   -2.4066   -4.2842 N.am      3 UNK        -0.4232 
     30 C          23.9952   -1.8093   -3.2090 C.2       2 UNK         0.4993 
     31 O          24.5497   -0.7091   -3.2416 O.2       2 UNK        -0.5286 
     32 CA         23.9238   -2.5695   -1.8735 C.3       2 UNK         0.0209 
     33 CB         22.9531   -3.7737   -1.8772 C.3       2 UNK        -0.1931 
     34 N          25.2517   -2.9853   -1.4089 N.am      2 UNK        -0.4546 
     35 C          26.1383   -3.7746   -2.0408 C.2       1 UNK         0.5154 
     36 O          25.9605   -4.2318   -3.1714 O.2       1 UNK        -0.5181 
     37 C          26.6780    2.4519   -4.6624 C.2       5 UNK         0.5014 
     38 O          27.2275    3.5390   -4.8437 O.2       5 UNK        -0.5248 
     39 N          25.4496    2.1487   -5.1089 N.am      6 UNK        -0.4434 
     40 CA         24.6225    3.0360   -5.9271 C.3       6 UNK         0.0363 
     41 CB         23.1728    2.5240   -5.9428 C.3       6 UNK        -0.1936 
     42 C          25.1690    3.1832   -7.3562 C.2       6 UNK         0.5081 
     43 O          25.1993    4.2974   -7.8792 O.2       6 UNK        -0.5248 
     44 N          25.5934    2.0626   -7.9573 N.am      7 UNK        -0.4718 
     45 CA         26.1883    2.0113   -9.2930 C.3       7 UNK         0.0273 
     46 CB         26.2607    0.5513   -9.7701 C.3       7 UNK        -0.1935 
     47 C          27.5791    2.6582   -9.3556 C.2       7 UNK         0.5018 
     48 O          27.8814    3.3280  -10.3441 O.2       7 UNK        -0.5186 
     49 N          28.4090    2.4157   -8.3280 N.am      8 UNK        -0.4240 
     50 CA         29.8057    2.8406   -8.1443 C.3       8 UNK         0.0235 
     51 CB         29.9399    4.3749   -8.1222 C.3       8 UNK        -0.2000 
     52 C          30.7921    2.2022   -9.1392 C.2       8 UNK         0.4941 
     53 O          31.8330    1.6999   -8.7173 O.2       8 UNK        -0.5273 
     54 N          30.4271    2.1710  -10.4281 N.am      9 UNK        -0.4262 
     55 CA         31.1646    1.5751  -11.5494 C.3       9 UNK         0.0264 
     56 CB         30.4266    1.9103  -12.8562 C.3       9 UNK        -0.1955 
     57 C          31.4052    0.0556  -11.4381 C.2       9 UNK         0.5031 
     58 O          32.1969   -0.4849  -12.2116 O.2       9 UNK        -0.5390 
     59 N          30.7434   -0.6040  -10.4766 N.am      10 UNK        -0.4204 
     60 CA         31.0164   -1.9761  -10.0467 C.3       10 UNK         0.0237 
     61 CB         29.9356   -2.4060   -9.0399 C.3       10 UNK        -0.1985 
     62 C          32.4238   -2.1473   -9.4389 C.2       10 UNK         0.4970 
     63 O          32.9908   -3.2354   -9.5442 O.2       10 UNK        -0.4914 
     64 N          32.9608   -1.0806   -8.8319 N.am      11 UNK        -0.4285 
     65 CA         34.3402   -0.9973   -8.3447 C.3       11 UNK         0.1007 
     66 C          35.2707   -0.5055   -9.4833 C.2       11 UNK         0.5703 
     67 N          36.4142   -1.1492   -9.6749 N.am      11 UNK        -0.7361 
     68 O          34.9860    0.4767  -10.1661 O.2       11 UNK        -0.4986 
     69 C69        34.4344   -0.0684   -7.1067 C.3       12 UNK        -0.0947 
     70 S70        33.8562   -0.8793   -5.5822 S.3       12 UNK        -0.2240 
     71 C71        32.0579   -0.6051   -5.6464 C.3       12 UNK         0.0194 
     72 H72        26.3778   -4.3828    2.6270 H         1 UNK         0.0906 
     73 H73        28.0229   -4.7311    3.1616 H         1 UNK         0.0906 
     74 H74        27.4435   -3.0641    3.1166 H         1 UNK         0.0906 
     75 H75        26.1678   -4.5317    0.4012 H         1 UNK         0.3140 
     76 H76        28.0480   -3.2450   -1.3910 H         1 UNK         0.1085 
     77 H77        27.5033   -6.1835   -1.9639 H         1 UNK         0.0836 
     78 H78        28.8200   -5.7647   -0.9201 H         1 UNK         0.0836 
     79 H79        31.6546   -4.7976   -2.7985 H         1 UNK         0.0731 
     80 H80        30.7641   -4.4261   -1.3451 H         1 UNK         0.0731 
     81 H81        31.8021   -3.1379   -4.6745 H         1 UNK         0.1312 
     82 H82        30.8113    0.9371   -3.7716 H         1 UNK         0.1406 
     83 H83        29.8665   -2.1616   -0.9770 H         1 UNK         0.1631 
     84 H84        29.7213    1.5072   -1.6891 H         1 UNK         0.0717 
     85 H85        29.9502    0.3869   -0.3681 H         1 UNK         0.0717 
     86 H86        25.9670    1.4081   -2.2441 H         1 UNK         0.0934 
     87 H87        27.3627    2.4107   -1.9694 H         1 UNK         0.0934 
     88 H88        28.4835    1.5552   -3.9763 H         1 UNK         0.0739 
     89 H89        26.5166   -0.5610   -3.9570 H         1 UNK         0.3093 
     90 H90        27.2907   -1.7499   -7.2433 H         1 UNK         0.0818 
     91 H91        28.1907   -2.8486   -4.5364 H         1 UNK         0.0819 
     92 H92        27.9155   -3.8273   -5.9791 H         1 UNK         0.0819 
     93 H93        29.2085   -2.6379   -5.9509 H         1 UNK         0.0819 
     94 H94        25.7298   -2.8635   -5.1237 H         1 UNK         0.3041 
     95 H95        22.8001   -0.9413   -5.5866 H         1 UNK         0.0784 
     96 H96        22.6255   -2.4432   -7.5846 H         1 UNK         0.0793 
     97 H97        23.2409   -3.7898   -6.6359 H         1 UNK         0.0793 
     98 H98        21.6865   -3.0568   -6.2350 H         1 UNK         0.0793 
     99 H99        23.0591   -3.3244   -4.1593 H         1 UNK         0.3024 
    100 H100       23.5488   -1.8482   -1.1452 H         1 UNK         0.1171 
    101 H101       22.8657   -4.2036   -0.8792 H         1 UNK         0.0786 
    102 H102       21.9488   -3.4721   -2.1788 H         1 UNK         0.0786 
    103 H103       23.2788   -4.5709   -2.5464 H         1 UNK         0.0786 
    104 H104       25.5323   -2.6024   -0.5164 H         1 UNK         0.2977 
    105 H105       25.0782    1.2297   -4.9091 H         1 UNK         0.3127 
    106 H106       24.6271    4.0255   -5.4645 H         1 UNK         0.0770 
    107 H107       23.0944    1.5366   -6.3985 H         1 UNK         0.0814 
    108 H108       22.5309    3.1962   -6.5137 H         1 UNK         0.0814 
    109 H109       22.7619    2.4626   -4.9350 H         1 UNK         0.0814 
    110 H110       25.4552    1.1706   -7.4858 H         1 UNK         0.2983 
    111 H111       25.5363    2.5622   -9.9746 H         1 UNK         0.0947 
    112 H112       26.6855    0.4864  -10.7728 H         1 UNK         0.0806 
    113 H113       25.2696    0.0986   -9.8082 H         1 UNK         0.0806 
    114 H114       26.8795   -0.0592   -9.1113 H         1 UNK         0.0806 
    115 H115       28.0808    1.7833   -7.6018 H         1 UNK         0.3000 
    116 H116       30.0871    2.4760   -7.1546 H         1 UNK         0.0850 
    117 H117       30.9613    4.6708   -7.8796 H         1 UNK         0.0810 
    118 H118       29.2864    4.8156   -7.3689 H         1 UNK         0.0810 
    119 H119       29.6931    4.8241   -9.0844 H         1 UNK         0.0810 
    120 H120       29.5391    2.6168  -10.6524 H         1 UNK         0.3040 
    121 H121       32.1487    2.0473  -11.5772 H         1 UNK         0.0766 
    122 H122       30.9619    1.5181  -13.7221 H         1 UNK         0.0812 
    123 H123       30.3355    2.9878  -12.9957 H         1 UNK         0.0812 
    124 H124       29.4227    1.4839  -12.8717 H         1 UNK         0.0812 
    125 H125       30.1046   -0.0703   -9.9067 H         1 UNK         0.3205 
    126 H126       30.9537   -2.6241  -10.9233 H         1 UNK         0.0754 
    127 H127       29.9103   -1.7482   -8.1702 H         1 UNK         0.0769 
    128 H128       30.1159   -3.4195   -8.6786 H         1 UNK         0.0769 
    129 H129       28.9445   -2.3971   -9.4939 H         1 UNK         0.0769 
    130 H130       32.4585   -0.1984   -8.8395 H         1 UNK         0.2981 
    131 H131       34.6729   -1.9937   -8.0456 H         1 UNK         0.0541 
    132 H132       36.6641   -1.9482   -9.1129 H         1 UNK         0.3459 
    133 H133       37.0381   -0.8327  -10.4007 H         1 UNK         0.3459 
    134 H134       33.8932    0.8660   -7.2616 H         1 UNK         0.0612 
    135 H135       35.4722    0.2160   -6.9220 H         1 UNK         0.0612 
    136 H136       31.6266   -1.1711   -6.4713 H         1 UNK         0.0624 
    137 H137       31.8548    0.4481   -5.8475 H         1 UNK         0.0624 
@<TRIPOS>BOND
     1    1    2 1    
     2    1   72 1    
     3    1   73 1    
     4    1   74 1    
     5    2    3 2    
     6    2    4 am   BACKBONE|DICT|INTERRES
     7    4    5 1    
     8    4   75 1    
     9    5    6 1    
    10    5   35 1    
    11    5   76 1    
    12    6    7 1    
    13    6   77 1    
    14    6   78 1    
    15    7    8 1    
    16    8    9 1    
    17    8   79 1    
    18    8   80 1    
    19    9   10 ar   
    20    9   14 ar   
    21   10   11 ar   
    22   10   81 1    
    23   11   12 ar   
    24   11   71 1    
    25   12   13 ar   
    26   12   82 1    
    27   13   14 ar   
    28   13   15 1    
    29   14   83 1    
    30   15   16 1    
    31   15   84 1    
    32   15   85 1    
    33   16   17 1    
    34   17   18 1    
    35   17   86 1    
    36   17   87 1    
    37   18   19 1    
    38   18   37 1    
    39   18   88 1    
    40   19   20 am   BACKBONE|DICT|INTERRES
    41   19   89 1    
    42   20   21 2    
    43   20   22 1    
    44   22   23 1    
    45   22   24 1    
    46   22   90 1    
    47   23   91 1    
    48   23   92 1    
    49   23   93 1    
    50   24   25 am   BACKBONE|DICT|INTERRES
    51   24   94 1    
    52   25   26 2    
    53   25   27 1    
    54   27   28 1    
    55   27   29 1    
    56   27   95 1    
    57   28   96 1    
    58   28   97 1    
    59   28   98 1    
    60   29   30 am   BACKBONE|DICT|INTERRES
    61   29   99 1    
    62   30   31 2    
    63   30   32 1    
    64   32   33 1    
    65   32   34 1    
    66   32  100 1    
    67   33  101 1    
    68   33  102 1    
    69   33  103 1    
    70   34   35 am   BACKBONE|DICT|INTERRES
    71   34  104 1    
    72   35   36 2    
    73   37   38 2    
    74   37   39 am   BACKBONE|DICT|INTERRES
    75   39   40 1    
    76   39  105 1    
    77   40   41 1    
    78   40   42 1    
    79   40  106 1    
    80   41  107 1    
    81   41  108 1    
    82   41  109 1    
    83   42   43 2    
    84   42   44 am   BACKBONE|DICT|INTERRES
    85   44   45 1    
    86   44  110 1    
    87   45   46 1    
    88   45   47 1    
    89   45  111 1    
    90   46  112 1    
    91   46  113 1    
    92   46  114 1    
    93   47   48 2    
    94   47   49 am   BACKBONE|DICT|INTERRES
    95   49   50 1    
    96   49  115 1    
    97   50   51 1    
    98   50   52 1    
    99   50  116 1    
   100   51  117 1    
   101   51  118 1    
   102   51  119 1    
   103   52   53 2    
   104   52   54 am   BACKBONE|DICT|INTERRES
   105   54   55 1    
   106   54  120 1    
   107   55   56 1    
   108   55   57 1    
   109   55  121 1    
   110   56  122 1    
   111   56  123 1    
   112   56  124 1    
   113   57   58 2    
   114   57   59 am   BACKBONE|DICT|INTERRES
   115   59   60 1    
   116   59  125 1    
   117   60   61 1    
   118   60   62 1    
   119   60  126 1    
   120   61  127 1    
   121   61  128 1    
   122   61  129 1    
   123   62   63 2    
   124   62   64 am   BACKBONE|DICT|INTERRES
   125   64   65 1    
   126   64  130 1    
   127   65   66 1    
   128   65   69 1    
   129   65  131 1    
   130   66   67 am   BACKBONE|DICT|INTERRES
   131   66   68 2    
   132   67  132 1    
   133   67  133 1    
   134   69   70 1    
   135   69  134 1    
   136   69  135 1    
   137   70   71 1    
   138   71  136 1    
   139   71  137 1    
@<TRIPOS>SUBSTRUCTURE
     1 UNK         1 GROUP             0       ****    0 ROOT    
