@<TRIPOS>MOLECULE
3R137
137   139    1
SMALL
USER_CHARGES


@<TRIPOS>ATOM
      1 CA         23.8832   -5.7938   -0.6675 C.3       0 UNK        -0.2020 
      2 C          25.0659   -4.8980   -1.0055 C.2       0 UNK         0.4855 
      3 O          25.2464   -4.5457   -2.1705 O.2       0 UNK        -0.5197 
      4 N          25.8699   -4.5392    0.0054 N.am      1 UNK        -0.4892 
      5 CA         27.0275   -3.6382   -0.0806 C.3       1 UNK         0.0835 
      6 C6         28.1426   -4.1791   -1.0234 C.3       12 UNK        -0.0855 
      7 S7         29.8137   -3.6634   -0.5001 S.3       12 UNK        -0.2931 
      8 C8         30.8593   -4.7188   -1.5500 C.3       12 UNK         0.0378 
      9 C9         30.8977   -4.2213   -2.9873 C.ar      12 UNK        -0.0802 
     10 C10        31.8621   -3.2868   -3.3809 C.ar      12 UNK        -0.0944 
     11 C11        31.9268   -2.8509   -4.7074 C.ar      12 UNK        -0.0787 
     12 C12        30.9968   -3.3360   -5.6300 C.ar      12 UNK        -0.0862 
     13 C13        30.0252   -4.2674   -5.2546 C.ar      12 UNK        -0.0733 
     14 C14        29.9903   -4.7165   -3.9301 C.ar      12 UNK        -0.0832 
     15 C15        29.0702   -4.8152   -6.3134 C.3       12 UNK         0.0240 
     16 S16        27.3423   -5.0196   -5.7615 S.3       12 UNK        -0.2522 
     17 C17        26.8734   -3.3359   -5.2461 C.3       12 UNK        -0.0967 
     18 CA         26.5953   -2.3752   -6.4381 C.3       5 UNK         0.0660 
     19 N          25.3613   -1.6051   -6.2528 N.am      5 UNK        -0.4015 
     20 C          24.7959   -0.8242   -7.1862 C.2       4 UNK         0.4946 
     21 O          25.2273   -0.7026   -8.3318 O.2       4 UNK        -0.5353 
     22 CA         23.5537   -0.0153   -6.7759 C.3       4 UNK         0.0277 
     23 CB         22.2727   -0.7951   -7.1119 C.3       4 UNK        -0.1981 
     24 N          23.5347    0.3667   -5.3628 N.am      4 UNK        -0.4209 
     25 C          24.4311    1.1595   -4.7582 C.2       3 UNK         0.4942 
     26 O          25.3865    1.6780   -5.3397 O.2       3 UNK        -0.5208 
     27 CA         24.2398    1.4034   -3.2458 C.3       3 UNK         0.0250 
     28 CB         23.0669    0.6096   -2.6244 C.3       3 UNK        -0.1990 
     29 N          25.4505    1.1651   -2.4495 N.am      3 UNK        -0.4232 
     30 C          26.2671    0.1009   -2.4927 C.2       2 UNK         0.4993 
     31 O          26.2132   -0.7796   -3.3556 O.2       2 UNK        -0.5286 
     32 CA         27.3471    0.0007   -1.3945 C.3       2 UNK         0.0209 
     33 CB         27.1298    0.9496   -0.1925 C.3       2 UNK        -0.1931 
     34 N          27.5202   -1.3837   -0.9400 N.am      2 UNK        -0.4546 
     35 C          26.5987   -2.1788   -0.3755 C.2       1 UNK         0.5154 
     36 O          25.4683   -1.7979   -0.0560 O.2       1 UNK        -0.5181 
     37 C          27.7835   -1.4279   -6.6835 C.2       5 UNK         0.5014 
     38 O          28.4926   -1.5682   -7.6829 O.2       5 UNK        -0.5248 
     39 N          27.9402   -0.4478   -5.7825 N.am      6 UNK        -0.4434 
     40 CA         28.9765    0.5772   -5.8717 C.3       6 UNK         0.0363 
     41 CB         29.0985    1.3401   -4.5471 C.3       6 UNK        -0.1936 
     42 C          28.7833    1.5398   -7.0470 C.2       6 UNK         0.5081 
     43 O          29.7793    1.9522   -7.6393 O.2       6 UNK        -0.5248 
     44 N          27.5267    1.8577   -7.3869 N.am      7 UNK        -0.4718 
     45 CA         27.1766    2.6573   -8.5628 C.3       7 UNK         0.0273 
     46 CB         25.6847    3.0210   -8.5247 C.3       7 UNK        -0.1935 
     47 C          27.5332    1.9529   -9.8831 C.2       7 UNK         0.5018 
     48 O          28.0758    2.6006  -10.7785 O.2       7 UNK        -0.5186 
     49 N          27.2462    0.6452   -9.9740 N.am      8 UNK        -0.4240 
     50 CA         27.5706   -0.1944  -11.1297 C.3       8 UNK         0.0235 
     51 CB         26.8411   -1.5430  -11.0183 C.3       8 UNK        -0.2000 
     52 C          29.0820   -0.4088  -11.3045 C.2       8 UNK         0.4941 
     53 O          29.5812   -0.2891  -12.4241 O.2       8 UNK        -0.5273 
     54 N          29.7828   -0.7160  -10.2038 N.am      9 UNK        -0.4262 
     55 CA         31.2329   -0.9362  -10.1945 C.3       9 UNK         0.0264 
     56 CB         31.6110   -1.7113   -8.9268 C.3       9 UNK        -0.1955 
     57 C          32.0618    0.3564  -10.2854 C.2       9 UNK         0.5031 
     58 O          33.2334    0.2852  -10.6588 O.2       9 UNK        -0.5390 
     59 N          31.4572    1.4936   -9.9139 N.am      10 UNK        -0.4204 
     60 CA         32.0553    2.8255   -9.7736 C.3       10 UNK         0.0237 
     61 CB         32.5909    3.3524  -11.1227 C.3       10 UNK        -0.1985 
     62 C          33.0899    2.9069   -8.6314 C.2       10 UNK         0.4970 
     63 O          33.9992    3.7365   -8.6975 O.2       10 UNK        -0.4914 
     64 N          32.9279    2.0666   -7.5981 N.am      11 UNK        -0.4285 
     65 CA         33.7467    2.0832   -6.3744 C.3       11 UNK         0.1007 
     66 C          33.2598    3.1003   -5.3005 C.2       11 UNK         0.5703 
     67 N          32.1045    3.7365   -5.4630 N.am      11 UNK        -0.7361 
     68 O          33.9549    3.3326   -4.3142 O.2       11 UNK        -0.4986 
     69 C69        33.9810    0.6583   -5.7999 C.3       12 UNK        -0.0947 
     70 S70        32.4843   -0.1706   -5.1666 S.3       12 UNK        -0.2240 
     71 C71        33.0300   -1.9031   -5.1612 C.3       12 UNK         0.0194 
     72 H72        23.8493   -6.0452    0.3924 H         1 UNK         0.0906 
     73 H73        22.9499   -5.2950   -0.9276 H         1 UNK         0.0906 
     74 H74        23.9425   -6.7225   -1.2344 H         1 UNK         0.0906 
     75 H75        25.6378   -4.8420    0.9416 H         1 UNK         0.3140 
     76 H76        27.4294   -3.6151    0.9339 H         1 UNK         0.1085 
     77 H77        28.1290   -5.2704   -1.0179 H         1 UNK         0.0836 
     78 H78        27.9628   -3.8882   -2.0604 H         1 UNK         0.0836 
     79 H79        31.8697   -4.7297   -1.1382 H         1 UNK         0.0731 
     80 H80        30.5069   -5.7507   -1.5087 H         1 UNK         0.0731 
     81 H81        32.5754   -2.9141   -2.6583 H         1 UNK         0.1312 
     82 H82        31.0434   -3.0034   -6.6535 H         1 UNK         0.1406 
     83 H83        29.2564   -5.4532   -3.6329 H         1 UNK         0.1631 
     84 H84        29.4427   -5.7876   -6.6375 H         1 UNK         0.0717 
     85 H85        29.0740   -4.1806   -7.2006 H         1 UNK         0.0717 
     86 H86        27.6176   -2.9459   -4.5481 H         1 UNK         0.0934 
     87 H87        25.9737   -3.4542   -4.6397 H         1 UNK         0.0934 
     88 H88        26.4557   -2.9629   -7.3481 H         1 UNK         0.0739 
     89 H89        24.9829   -1.5878   -5.3157 H         1 UNK         0.3093 
     90 H90        23.5518    0.9049   -7.3619 H         1 UNK         0.0818 
     91 H91        21.3810   -0.1993   -6.9163 H         1 UNK         0.0819 
     92 H92        22.2502   -1.0697   -8.1677 H         1 UNK         0.0819 
     93 H93        22.1959   -1.7173   -6.5343 H         1 UNK         0.0819 
     94 H94        22.7865   -0.0139   -4.8015 H         1 UNK         0.3041 
     95 H95        24.0108    2.4653   -3.1453 H         1 UNK         0.0784 
     96 H96        22.1174    0.8462   -3.1066 H         1 UNK         0.0793 
     97 H97        23.2246   -0.4682   -2.6890 H         1 UNK         0.0793 
     98 H98        22.9484    0.8550   -1.5687 H         1 UNK         0.0793 
     99 H99        25.6297    1.8522   -1.7313 H         1 UNK         0.3024 
    100 H100       28.2886    0.2821   -1.8632 H         1 UNK         0.1171 
    101 H101       27.8963    0.7980    0.5678 H         1 UNK         0.0786 
    102 H102       26.1608    0.7950    0.2840 H         1 UNK         0.0786 
    103 H103       27.1914    1.9960   -0.4937 H         1 UNK         0.0786 
    104 H104       28.4154   -1.8062   -1.1533 H         1 UNK         0.2977 
    105 H105       27.2963   -0.4027   -4.9975 H         1 UNK         0.3127 
    106 H106       29.9138    0.0559   -6.0557 H         1 UNK         0.0770 
    107 H107       28.1490    1.7821   -4.2434 H         1 UNK         0.0814 
    108 H108       29.8257    2.1488   -4.6276 H         1 UNK         0.0814 
    109 H109       29.4502    0.6800   -3.7561 H         1 UNK         0.0814 
    110 H110       26.7648    1.5422   -6.7934 H         1 UNK         0.2983 
    111 H111       27.7532    3.5838   -8.5149 H         1 UNK         0.0947 
    112 H112       25.4296    3.6977   -9.3412 H         1 UNK         0.0806 
    113 H113       25.4189    3.5203   -7.5926 H         1 UNK         0.0806 
    114 H114       25.0537    2.1389   -8.6266 H         1 UNK         0.0806 
    115 H115       26.7480    0.1943   -9.2109 H         1 UNK         0.3000 
    116 H116       27.2041    0.3140  -12.0242 H         1 UNK         0.0850 
    117 H117       27.0730   -2.1862  -11.8682 H         1 UNK         0.0810 
    118 H118       25.7597   -1.4063  -11.0009 H         1 UNK         0.0810 
    119 H119       27.1223   -2.0815  -10.1123 H         1 UNK         0.0810 
    120 H120       29.2872   -0.8566   -9.3256 H         1 UNK         0.3040 
    121 H121       31.4942   -1.5519  -11.0579 H         1 UNK         0.0766 
    122 H122       32.6838   -1.9052   -8.8857 H         1 UNK         0.0812 
    123 H123       31.3425   -1.1561   -8.0271 H         1 UNK         0.0812 
    124 H124       31.1047   -2.6760   -8.8997 H         1 UNK         0.0812 
    125 H125       30.5123    1.4237   -9.5527 H         1 UNK         0.3205 
    126 H126       31.2367    3.4818   -9.4748 H         1 UNK         0.0754 
    127 H127       32.8726    4.4033  -11.0475 H         1 UNK         0.0769 
    128 H128       31.8353    3.2763  -11.9048 H         1 UNK         0.0769 
    129 H129       33.4736    2.8042  -11.4529 H         1 UNK         0.0769 
    130 H130       32.1163    1.4649   -7.5854 H         1 UNK         0.2981 
    131 H131       34.7380    2.4431   -6.6560 H         1 UNK         0.0541 
    132 H132       31.5242    3.5439   -6.2643 H         1 UNK         0.3459 
    133 H133       31.8069    4.4024   -4.7683 H         1 UNK         0.3459 
    134 H134       34.4244    0.0305   -6.5743 H         1 UNK         0.0612 
    135 H135       34.7147    0.6934   -4.9927 H         1 UNK         0.0612 
    136 H136       33.3600   -2.1789   -6.1639 H         1 UNK         0.0624 
    137 H137       33.9018   -2.0004   -4.5124 H         1 UNK         0.0624 
@<TRIPOS>BOND
     1    1    2 1    
     2    1   72 1    
     3    1   73 1    
     4    1   74 1    
     5    2    3 2    
     6    2    4 am   BACKBONE|DICT|INTERRES
     7    4    5 1    
     8    4   75 1    
     9    5    6 1    
    10    5   35 1    
    11    5   76 1    
    12    6    7 1    
    13    6   77 1    
    14    6   78 1    
    15    7    8 1    
    16    8    9 1    
    17    8   79 1    
    18    8   80 1    
    19    9   10 ar   
    20    9   14 ar   
    21   10   11 ar   
    22   10   81 1    
    23   11   12 ar   
    24   11   71 1    
    25   12   13 ar   
    26   12   82 1    
    27   13   14 ar   
    28   13   15 1    
    29   14   83 1    
    30   15   16 1    
    31   15   84 1    
    32   15   85 1    
    33   16   17 1    
    34   17   18 1    
    35   17   86 1    
    36   17   87 1    
    37   18   19 1    
    38   18   37 1    
    39   18   88 1    
    40   19   20 am   BACKBONE|DICT|INTERRES
    41   19   89 1    
    42   20   21 2    
    43   20   22 1    
    44   22   23 1    
    45   22   24 1    
    46   22   90 1    
    47   23   91 1    
    48   23   92 1    
    49   23   93 1    
    50   24   25 am   BACKBONE|DICT|INTERRES
    51   24   94 1    
    52   25   26 2    
    53   25   27 1    
    54   27   28 1    
    55   27   29 1    
    56   27   95 1    
    57   28   96 1    
    58   28   97 1    
    59   28   98 1    
    60   29   30 am   BACKBONE|DICT|INTERRES
    61   29   99 1    
    62   30   31 2    
    63   30   32 1    
    64   32   33 1    
    65   32   34 1    
    66   32  100 1    
    67   33  101 1    
    68   33  102 1    
    69   33  103 1    
    70   34   35 am   BACKBONE|DICT|INTERRES
    71   34  104 1    
    72   35   36 2    
    73   37   38 2    
    74   37   39 am   BACKBONE|DICT|INTERRES
    75   39   40 1    
    76   39  105 1    
    77   40   41 1    
    78   40   42 1    
    79   40  106 1    
    80   41  107 1    
    81   41  108 1    
    82   41  109 1    
    83   42   43 2    
    84   42   44 am   BACKBONE|DICT|INTERRES
    85   44   45 1    
    86   44  110 1    
    87   45   46 1    
    88   45   47 1    
    89   45  111 1    
    90   46  112 1    
    91   46  113 1    
    92   46  114 1    
    93   47   48 2    
    94   47   49 am   BACKBONE|DICT|INTERRES
    95   49   50 1    
    96   49  115 1    
    97   50   51 1    
    98   50   52 1    
    99   50  116 1    
   100   51  117 1    
   101   51  118 1    
   102   51  119 1    
   103   52   53 2    
   104   52   54 am   BACKBONE|DICT|INTERRES
   105   54   55 1    
   106   54  120 1    
   107   55   56 1    
   108   55   57 1    
   109   55  121 1    
   110   56  122 1    
   111   56  123 1    
   112   56  124 1    
   113   57   58 2    
   114   57   59 am   BACKBONE|DICT|INTERRES
   115   59   60 1    
   116   59  125 1    
   117   60   61 1    
   118   60   62 1    
   119   60  126 1    
   120   61  127 1    
   121   61  128 1    
   122   61  129 1    
   123   62   63 2    
   124   62   64 am   BACKBONE|DICT|INTERRES
   125   64   65 1    
   126   64  130 1    
   127   65   66 1    
   128   65   69 1    
   129   65  131 1    
   130   66   67 am   BACKBONE|DICT|INTERRES
   131   66   68 2    
   132   67  132 1    
   133   67  133 1    
   134   69   70 1    
   135   69  134 1    
   136   69  135 1    
   137   70   71 1    
   138   71  136 1    
   139   71  137 1    
@<TRIPOS>SUBSTRUCTURE
     1 UNK         1 GROUP             0       ****    0 ROOT    
