@<TRIPOS>MOLECULE
3R137
137   139    1
SMALL
USER_CHARGES


@<TRIPOS>ATOM
      1 CA         24.9854   -5.8580   -6.0497 C.3       0 UNK        -0.2020 
      2 C          25.1201   -5.3453   -4.6244 C.2       0 UNK         0.4855 
      3 O          24.1375   -4.8758   -4.0492 O.2       0 UNK        -0.5197 
      4 N          26.3328   -5.4159   -4.0592 N.am      1 UNK        -0.4892 
      5 CA         26.7050   -4.9289   -2.7249 C.3       1 UNK         0.0835 
      6 C6         28.1879   -5.2465   -2.3733 C.3       12 UNK        -0.0855 
      7 S7         29.3871   -4.9949   -3.7378 S.3       12 UNK        -0.2931 
      8 C8         30.8818   -4.4336   -2.8608 C.3       12 UNK         0.0378 
      9 C9         31.0376   -2.9198   -2.9063 C.ar      12 UNK        -0.0802 
     10 C10        31.6692   -2.3160   -3.9987 C.ar      12 UNK        -0.0944 
     11 C11        31.8394   -0.9293   -4.0457 C.ar      12 UNK        -0.0787 
     12 C12        31.4089   -0.1496   -2.9719 C.ar      12 UNK        -0.0862 
     13 C13        30.7509   -0.7347   -1.8863 C.ar      12 UNK        -0.0733 
     14 C14        30.5701   -2.1224   -1.8569 C.ar      12 UNK        -0.0832 
     15 C15        30.2088    0.1378   -0.7607 C.3       12 UNK         0.0240 
     16 S16        29.1395    1.4869   -1.3715 S.3       12 UNK        -0.2522 
     17 C17        27.9135    0.5716   -2.3647 C.3       12 UNK        -0.0967 
     18 CA         28.0809    0.7984   -3.8932 C.3       5 UNK         0.0660 
     19 N          27.5583   -0.3257   -4.6717 N.am      5 UNK        -0.4015 
     20 C          27.6474   -0.4906   -5.9992 C.2       4 UNK         0.4946 
     21 O          28.3023    0.2317   -6.7481 O.2       4 UNK        -0.5353 
     22 CA         26.8284   -1.6347   -6.6159 C.3       4 UNK         0.0277 
     23 CB         27.6398   -2.9360   -6.6530 C.3       4 UNK        -0.1981 
     24 N          25.5633   -1.8499   -5.9128 N.am      4 UNK        -0.4209 
     25 C          24.5277   -0.9990   -5.9524 C.2       3 UNK         0.4942 
     26 O          24.5113    0.0298   -6.6283 O.2       3 UNK        -0.5208 
     27 CA         23.3324   -1.3283   -5.0445 C.3       3 UNK         0.0250 
     28 CB         22.3957   -2.3430   -5.7183 C.3       3 UNK        -0.1990 
     29 N          23.7587   -1.8299   -3.7345 N.am      3 UNK        -0.4232 
     30 C          24.3558   -1.0636   -2.8088 C.2       2 UNK         0.4993 
     31 O          24.5634    0.1412   -2.9556 O.2       2 UNK        -0.5286 
     32 CA         24.8532   -1.7561   -1.5261 C.3       2 UNK         0.0209 
     33 CB         23.7415   -1.7834   -0.4655 C.3       2 UNK        -0.1931 
     34 N          25.3612   -3.1163   -1.7395 N.am      2 UNK        -0.4546 
     35 C          26.3720   -3.4332   -2.5614 C.2       1 UNK         0.5154 
     36 O          26.9896   -2.6004   -3.2214 O.2       1 UNK        -0.5181 
     37 C          27.4482    2.1302   -4.3357 C.2       5 UNK         0.5014 
     38 O          28.1768    3.0708   -4.6533 O.2       5 UNK        -0.5248 
     39 N          26.1070    2.1727   -4.3765 N.am      6 UNK        -0.4434 
     40 CA         25.3189    3.3329   -4.8008 C.3       6 UNK         0.0363 
     41 CB         23.8261    3.0546   -4.5635 C.3       6 UNK        -0.1936 
     42 C          25.5707    3.7363   -6.2634 C.2       6 UNK         0.5081 
     43 O          25.6820    4.9283   -6.5516 O.2       6 UNK        -0.5248 
     44 N          25.6730    2.7417   -7.1547 N.am      7 UNK        -0.4718 
     45 CA         25.9867    2.9375   -8.5724 C.3       7 UNK         0.0273 
     46 CB         25.5580    1.6818   -9.3488 C.3       7 UNK        -0.1935 
     47 C          27.4720    3.2449   -8.8431 C.2       7 UNK         0.5018 
     48 O          27.7808    3.7796   -9.9086 O.2       7 UNK        -0.5186 
     49 N          28.3556    2.8634   -7.9067 N.am      8 UNK        -0.4240 
     50 CA         29.8210    2.8092   -8.0164 C.3       8 UNK         0.0235 
     51 CB         30.4253    4.2255   -8.1117 C.3       8 UNK        -0.2000 
     52 C          30.2776    1.8714   -9.1548 C.2       8 UNK         0.4941 
     53 O          31.2207    2.1877   -9.8811 O.2       8 UNK        -0.5273 
     54 N          29.5636    0.7485   -9.3112 N.am      9 UNK        -0.4262 
     55 CA         29.6652   -0.1491  -10.4639 C.3       9 UNK         0.0264 
     56 CB         28.3024   -0.8222  -10.6976 C.3       9 UNK        -0.1955 
     57 C          30.7622   -1.2120  -10.3173 C.2       9 UNK         0.5031 
     58 O          31.3875   -1.5741  -11.3144 O.2       9 UNK        -0.5390 
     59 N          30.9608   -1.7108   -9.0910 N.am      10 UNK        -0.4204 
     60 CA         31.8828   -2.8109   -8.7839 C.3       10 UNK         0.0237 
     61 CB         31.2759   -3.6597   -7.6523 C.3       10 UNK        -0.1985 
     62 C          33.3112   -2.3491   -8.4370 C.2       10 UNK         0.4970 
     63 O          34.1670   -3.2010   -8.1935 O.2       10 UNK        -0.4914 
     64 N          33.5431   -1.0328   -8.4041 N.am      11 UNK        -0.4285 
     65 CA         34.8171   -0.3952   -8.0479 C.3       11 UNK         0.1007 
     66 C          35.3988    0.3853   -9.2550 C.2       11 UNK         0.5703 
     67 N          36.7017    0.6323   -9.2599 N.am      11 UNK        -0.7361 
     68 O          34.6876    0.7875  -10.1740 O.2       11 UNK        -0.4986 
     69 C69        34.6484    0.5300   -6.8133 C.3       12 UNK        -0.0947 
     70 S70        34.2535   -0.3965   -5.2911 S.3       12 UNK        -0.2240 
     71 C71        32.4419   -0.2632   -5.2712 C.3       12 UNK         0.0194 
     72 H72        24.2310   -6.6430   -6.0950 H         1 UNK         0.0906 
     73 H73        24.6765   -5.0502   -6.7125 H         1 UNK         0.0906 
     74 H74        25.9228   -6.2667   -6.4268 H         1 UNK         0.0906 
     75 H75        27.1116   -5.7740   -4.5953 H         1 UNK         0.3140 
     76 H76        26.0849   -5.4772   -2.0124 H         1 UNK         0.1085 
     77 H77        28.2628   -6.2951   -2.0812 H         1 UNK         0.0836 
     78 H78        28.5036   -4.6820   -1.4938 H         1 UNK         0.0836 
     79 H79        31.7501   -4.8987   -3.3299 H         1 UNK         0.0731 
     80 H80        30.8756   -4.7914   -1.8301 H         1 UNK         0.0731 
     81 H81        32.0288   -2.9277   -4.8133 H         1 UNK         0.1312 
     82 H82        31.5419    0.9233   -3.0006 H         1 UNK         0.1406 
     83 H83        30.0649   -2.5836   -1.0195 H         1 UNK         0.1631 
     84 H84        31.0456    0.5696   -0.2103 H         1 UNK         0.0717 
     85 H85        29.6415   -0.4593   -0.0449 H         1 UNK         0.0717 
     86 H86        28.0111   -0.4877   -2.1281 H         1 UNK         0.0934 
     87 H87        26.9169    0.8501   -2.0199 H         1 UNK         0.0934 
     88 H88        29.1444    0.8519   -4.1290 H         1 UNK         0.0739 
     89 H89        27.1171   -1.0714   -4.1364 H         1 UNK         0.3093 
     90 H90        26.5943   -1.3544   -7.6450 H         1 UNK         0.0818 
     91 H91        28.5475   -2.8013   -7.2392 H         1 UNK         0.0819 
     92 H92        27.9399   -3.2553   -5.6552 H         1 UNK         0.0819 
     93 H93        27.0761   -3.7468   -7.1137 H         1 UNK         0.0819 
     94 H94        25.5208   -2.6325   -5.2765 H         1 UNK         0.3041 
     95 H95        22.7716   -0.4040   -4.8880 H         1 UNK         0.0784 
     96 H96        22.0381   -1.9643   -6.6768 H         1 UNK         0.0793 
     97 H97        22.8932   -3.2939   -5.9099 H         1 UNK         0.0793 
     98 H98        21.5190   -2.5426   -5.1020 H         1 UNK         0.0793 
     99 H99        23.6676   -2.8266   -3.5673 H         1 UNK         0.3024 
    100 H100       25.6787   -1.1573   -1.1364 H         1 UNK         0.1171 
    101 H101       24.1073   -2.1751    0.4839 H         1 UNK         0.0786 
    102 H102       23.3609   -0.7790   -0.2737 H         1 UNK         0.0786 
    103 H103       22.8968   -2.3975   -0.7804 H         1 UNK         0.0786 
    104 H104       24.8700   -3.8598   -1.2636 H         1 UNK         0.2977 
    105 H105       25.5814    1.3648   -4.0495 H         1 UNK         0.3127 
    106 H106       25.6125    4.1757   -4.1716 H         1 UNK         0.0770 
    107 H107       23.4786    2.1975   -5.1416 H         1 UNK         0.0814 
    108 H108       23.2176    3.9126   -4.8520 H         1 UNK         0.0814 
    109 H109       23.6230    2.8513   -3.5118 H         1 UNK         0.0814 
    110 H110       25.4917    1.7891   -6.8504 H         1 UNK         0.2983 
    111 H111       25.4053    3.7844   -8.9440 H         1 UNK         0.0947 
    112 H112       26.0922    0.7956   -9.0045 H         1 UNK         0.0806 
    113 H113       25.7562    1.7923  -10.4158 H         1 UNK         0.0806 
    114 H114       24.4906    1.4912   -9.2353 H         1 UNK         0.0806 
    115 H115       27.9819    2.4056   -7.0839 H         1 UNK         0.3000 
    116 H116       30.1776    2.3588   -7.0886 H         1 UNK         0.0850 
    117 H117       31.5144    4.1884   -8.0667 H         1 UNK         0.0810 
    118 H118       30.0879    4.8544   -7.2878 H         1 UNK         0.0810 
    119 H119       30.1557    4.7202   -9.0451 H         1 UNK         0.0810 
    120 H120       28.8594    0.5433   -8.6075 H         1 UNK         0.3040 
    121 H121       29.9002    0.4441  -11.3508 H         1 UNK         0.0766 
    122 H122       28.3444   -1.5046  -11.5478 H         1 UNK         0.0812 
    123 H123       27.5310   -0.0847  -10.9178 H         1 UNK         0.0812 
    124 H124       27.9794   -1.4006   -9.8312 H         1 UNK         0.0812 
    125 H125       30.4145   -1.3392   -8.3275 H         1 UNK         0.3205 
    126 H126       31.9780   -3.4573   -9.6592 H         1 UNK         0.0754 
    127 H127       30.3834   -4.1835   -7.9946 H         1 UNK         0.0769 
    128 H128       30.9939   -3.0493   -6.7959 H         1 UNK         0.0769 
    129 H129       31.9724   -4.4219   -7.2998 H         1 UNK         0.0769 
    130 H130       32.8197   -0.4044   -8.7205 H         1 UNK         0.2981 
    131 H131       35.5520   -1.1619   -7.7948 H         1 UNK         0.0541 
    132 H132       37.0991    1.1456  -10.0312 H         1 UNK         0.3459 
    133 H133       37.2966    0.3150   -8.5103 H         1 UNK         0.3459 
    134 H134       35.5730    1.0758   -6.6171 H         1 UNK         0.0612 
    135 H135       33.8845    1.2883   -6.9953 H         1 UNK         0.0612 
    136 H136       32.1584    0.7900   -5.3081 H         1 UNK         0.0624 
    137 H137       32.0247   -0.7221   -6.1667 H         1 UNK         0.0624 
@<TRIPOS>BOND
     1    1    2 1    
     2    1   72 1    
     3    1   73 1    
     4    1   74 1    
     5    2    3 2    
     6    2    4 am   BACKBONE|DICT|INTERRES
     7    4    5 1    
     8    4   75 1    
     9    5    6 1    
    10    5   35 1    
    11    5   76 1    
    12    6    7 1    
    13    6   77 1    
    14    6   78 1    
    15    7    8 1    
    16    8    9 1    
    17    8   79 1    
    18    8   80 1    
    19    9   10 ar   
    20    9   14 ar   
    21   10   11 ar   
    22   10   81 1    
    23   11   12 ar   
    24   11   71 1    
    25   12   13 ar   
    26   12   82 1    
    27   13   14 ar   
    28   13   15 1    
    29   14   83 1    
    30   15   16 1    
    31   15   84 1    
    32   15   85 1    
    33   16   17 1    
    34   17   18 1    
    35   17   86 1    
    36   17   87 1    
    37   18   19 1    
    38   18   37 1    
    39   18   88 1    
    40   19   20 am   BACKBONE|DICT|INTERRES
    41   19   89 1    
    42   20   21 2    
    43   20   22 1    
    44   22   23 1    
    45   22   24 1    
    46   22   90 1    
    47   23   91 1    
    48   23   92 1    
    49   23   93 1    
    50   24   25 am   BACKBONE|DICT|INTERRES
    51   24   94 1    
    52   25   26 2    
    53   25   27 1    
    54   27   28 1    
    55   27   29 1    
    56   27   95 1    
    57   28   96 1    
    58   28   97 1    
    59   28   98 1    
    60   29   30 am   BACKBONE|DICT|INTERRES
    61   29   99 1    
    62   30   31 2    
    63   30   32 1    
    64   32   33 1    
    65   32   34 1    
    66   32  100 1    
    67   33  101 1    
    68   33  102 1    
    69   33  103 1    
    70   34   35 am   BACKBONE|DICT|INTERRES
    71   34  104 1    
    72   35   36 2    
    73   37   38 2    
    74   37   39 am   BACKBONE|DICT|INTERRES
    75   39   40 1    
    76   39  105 1    
    77   40   41 1    
    78   40   42 1    
    79   40  106 1    
    80   41  107 1    
    81   41  108 1    
    82   41  109 1    
    83   42   43 2    
    84   42   44 am   BACKBONE|DICT|INTERRES
    85   44   45 1    
    86   44  110 1    
    87   45   46 1    
    88   45   47 1    
    89   45  111 1    
    90   46  112 1    
    91   46  113 1    
    92   46  114 1    
    93   47   48 2    
    94   47   49 am   BACKBONE|DICT|INTERRES
    95   49   50 1    
    96   49  115 1    
    97   50   51 1    
    98   50   52 1    
    99   50  116 1    
   100   51  117 1    
   101   51  118 1    
   102   51  119 1    
   103   52   53 2    
   104   52   54 am   BACKBONE|DICT|INTERRES
   105   54   55 1    
   106   54  120 1    
   107   55   56 1    
   108   55   57 1    
   109   55  121 1    
   110   56  122 1    
   111   56  123 1    
   112   56  124 1    
   113   57   58 2    
   114   57   59 am   BACKBONE|DICT|INTERRES
   115   59   60 1    
   116   59  125 1    
   117   60   61 1    
   118   60   62 1    
   119   60  126 1    
   120   61  127 1    
   121   61  128 1    
   122   61  129 1    
   123   62   63 2    
   124   62   64 am   BACKBONE|DICT|INTERRES
   125   64   65 1    
   126   64  130 1    
   127   65   66 1    
   128   65   69 1    
   129   65  131 1    
   130   66   67 am   BACKBONE|DICT|INTERRES
   131   66   68 2    
   132   67  132 1    
   133   67  133 1    
   134   69   70 1    
   135   69  134 1    
   136   69  135 1    
   137   70   71 1    
   138   71  136 1    
   139   71  137 1    
@<TRIPOS>SUBSTRUCTURE
     1 UNK         1 GROUP             0       ****    0 ROOT    
