@<TRIPOS>MOLECULE
3R137
137   139    1
SMALL
USER_CHARGES


@<TRIPOS>ATOM
      1 CA         24.2351   -5.6860   -4.7751 C.3       0 UNK        -0.2020 
      2 C          24.6270   -5.0225   -3.4640 C.2       0 UNK         0.4855 
      3 O          23.8013   -4.3514   -2.8440 O.2       0 UNK        -0.5197 
      4 N          25.8863   -5.1923   -3.0437 N.am      1 UNK        -0.4892 
      5 CA         26.4870   -4.5956   -1.8457 C.3       1 UNK         0.0835 
      6 C6         27.9141   -5.1405   -1.5554 C.3       12 UNK        -0.0855 
      7 S7         28.9300   -5.4957   -3.0367 S.3       12 UNK        -0.2931 
      8 C8         30.5646   -4.8611   -2.5527 C.3       12 UNK         0.0378 
      9 C9         30.7608   -3.4151   -2.9802 C.ar      12 UNK        -0.0802 
     10 C10        31.0041   -3.1198   -4.3243 C.ar      12 UNK        -0.0944 
     11 C11        31.2352   -1.8069   -4.7409 C.ar      12 UNK        -0.0787 
     12 C12        31.2508   -0.7890   -3.7797 C.ar      12 UNK        -0.0862 
     13 C13        30.9541   -1.0568   -2.4400 C.ar      12 UNK        -0.0733 
     14 C14        30.7191   -2.3777   -2.0440 C.ar      12 UNK        -0.0832 
     15 C15        30.8745    0.0750   -1.4166 C.3       12 UNK         0.0240 
     16 S16        30.0075    1.5695   -2.0248 S.3       12 UNK        -0.2522 
     17 C17        28.4184    0.8849   -2.6028 C.3       12 UNK        -0.0967 
     18 CA         28.2975    0.8967   -4.1533 C.3       5 UNK         0.0660 
     19 N          27.6315   -0.3050   -4.6555 N.am      5 UNK        -0.4015 
     20 C          27.5140   -0.6589   -5.9434 C.2       4 UNK         0.4946 
     21 O          28.0352   -0.0583   -6.8846 O.2       4 UNK        -0.5353 
     22 CA         26.6053   -1.8649   -6.2305 C.3       4 UNK         0.0277 
     23 CB         27.3746   -3.1879   -6.0766 C.3       4 UNK        -0.1981 
     24 N          25.4222   -1.8673   -5.3633 N.am      4 UNK        -0.4209 
     25 C          24.4309   -0.9653   -5.4391 C.2       3 UNK         0.4942 
     26 O          24.3716   -0.0868   -6.2974 O.2       3 UNK        -0.5208 
     27 CA         23.3515   -1.0116   -4.3457 C.3       3 UNK         0.0250 
     28 CB         22.2321   -1.9955   -4.7191 C.3       3 UNK        -0.1990 
     29 N          23.9049   -1.3440   -3.0299 N.am      3 UNK        -0.4232 
     30 C          24.6830   -0.5084   -2.3231 C.2       2 UNK         0.4993 
     31 O          24.9688    0.6289   -2.6937 O.2       2 UNK        -0.5286 
     32 CA         25.2923   -1.0311   -1.0103 C.3       2 UNK         0.0209 
     33 CB         24.3638   -0.7201    0.1739 C.3       2 UNK        -0.1931 
     34 N          25.5950   -2.4642   -1.0324 N.am      2 UNK        -0.4546 
     35 C          26.4284   -3.0558   -1.8995 C.2       1 UNK         0.5154 
     36 O          27.0689   -2.4389   -2.7522 O.2       1 UNK        -0.5181 
     37 C          27.6361    2.1865   -4.6782 C.2       5 UNK         0.5014 
     38 O          28.3314    3.0443   -5.2232 O.2       5 UNK        -0.5248 
     39 N          26.3050    2.2854   -4.5397 N.am      6 UNK        -0.4434 
     40 CA         25.4905    3.4064   -5.0187 C.3       6 UNK         0.0363 
     41 CB         24.0474    3.2483   -4.5146 C.3       6 UNK        -0.1936 
     42 C          25.5123    3.5676   -6.5480 C.2       6 UNK         0.5081 
     43 O          25.5757    4.6969   -7.0345 O.2       6 UNK        -0.5248 
     44 N          25.4802    2.4442   -7.2782 N.am      7 UNK        -0.4718 
     45 CA         25.5980    2.4018   -8.7388 C.3       7 UNK         0.0273 
     46 CB         25.1464    1.0198   -9.2387 C.3       7 UNK        -0.1935 
     47 C          27.0165    2.7075   -9.2537 C.2       7 UNK         0.5018 
     48 O          27.1580    3.0387  -10.4315 O.2       7 UNK        -0.5186 
     49 N          28.0267    2.5663   -8.3809 N.am      8 UNK        -0.4240 
     50 CA         29.4658    2.6359   -8.6540 C.3       8 UNK         0.0235 
     51 CB         29.8905    4.0646   -9.0531 C.3       8 UNK        -0.2000 
     52 C          29.8920    1.5636   -9.6734 C.2       8 UNK         0.4941 
     53 O          30.5376    1.8760  -10.6774 O.2       8 UNK        -0.5273 
     54 N          29.4870    0.3139   -9.4088 N.am      9 UNK        -0.4262 
     55 CA         29.6546   -0.8537  -10.2781 C.3       9 UNK         0.0264 
     56 CB         28.6921   -1.9556   -9.7982 C.3       9 UNK        -0.1955 
     57 C          31.1150   -1.3462  -10.3792 C.2       9 UNK         0.5031 
     58 O          31.4151   -2.4657   -9.9597 O.2       9 UNK        -0.5390 
     59 N          31.9887   -0.4983  -10.9434 N.am      10 UNK        -0.4204 
     60 CA         33.4219   -0.7112  -11.2020 C.3       10 UNK         0.0237 
     61 CB         33.6207   -1.7687  -12.3090 C.3       10 UNK        -0.1985 
     62 C          34.2237   -1.0225   -9.9218 C.2       10 UNK         0.4970 
     63 O          35.0693   -1.9197   -9.9170 O.2       10 UNK        -0.4914 
     64 N          33.9053   -0.2894   -8.8503 N.am      11 UNK        -0.4285 
     65 CA         34.4162   -0.4961   -7.4900 C.3       11 UNK         0.1007 
     66 C          35.9282   -0.1757   -7.3415 C.2       11 UNK         0.5703 
     67 N          36.6113   -0.8292   -6.4112 N.am      11 UNK        -0.7361 
     68 O          36.4767    0.6840   -8.0296 O.2       11 UNK        -0.4986 
     69 C69        33.5733    0.2786   -6.4383 C.3       12 UNK        -0.0947 
     70 S70        31.7709    0.1782   -6.7150 S.3       12 UNK        -0.2240 
     71 C71        31.4078   -1.5452   -6.2376 C.3       12 UNK         0.0194 
     72 H72        25.0107   -6.3611   -5.1366 H         1 UNK         0.0906 
     73 H73        23.3197   -6.2628   -4.6446 H         1 UNK         0.0906 
     74 H74        24.0575   -4.9319   -5.5412 H         1 UNK         0.0906 
     75 H75        26.5375   -5.7227   -3.6072 H         1 UNK         0.3140 
     76 H76        25.8612   -4.9085   -1.0067 H         1 UNK         0.1085 
     77 H77        28.4549   -4.4742   -0.8804 H         1 UNK         0.0836 
     78 H78        27.8251   -6.0823   -1.0117 H         1 UNK         0.0836 
     79 H79        31.3286   -5.4763   -3.0303 H         1 UNK         0.0731 
     80 H80        30.7149   -4.9805   -1.4786 H         1 UNK         0.0731 
     81 H81        31.0016   -3.9200   -5.0522 H         1 UNK         0.1312 
     82 H82        31.4447    0.2328   -4.0683 H         1 UNK         0.1406 
     83 H83        30.5071   -2.6001   -1.0071 H         1 UNK         0.1631 
     84 H84        31.8870    0.3524   -1.1213 H         1 UNK         0.0717 
     85 H85        30.3701   -0.2657   -0.5111 H         1 UNK         0.0717 
     86 H86        28.3359   -0.1333   -2.2206 H         1 UNK         0.0934 
     87 H87        27.6036    1.4313   -2.1236 H         1 UNK         0.0934 
     88 H88        29.2953    0.8739   -4.5915 H         1 UNK         0.0739 
     89 H89        27.2452   -0.9335   -3.9569 H         1 UNK         0.3093 
     90 H90        26.2664   -1.7865   -7.2657 H         1 UNK         0.0818 
     91 H91        27.7602   -3.3249   -5.0664 H         1 UNK         0.0819 
     92 H92        26.7447   -4.0449   -6.3143 H         1 UNK         0.0819 
     93 H93        28.2323   -3.2213   -6.7480 H         1 UNK         0.0819 
     94 H94        25.4310   -2.5109   -4.5852 H         1 UNK         0.3041 
     95 H95        22.9078   -0.0158   -4.2795 H         1 UNK         0.0784 
     96 H96        21.7644   -1.7092   -5.6622 H         1 UNK         0.0793 
     97 H97        22.6036   -3.0125   -4.8387 H         1 UNK         0.0793 
     98 H98        21.4487   -2.0118   -3.9612 H         1 UNK         0.0793 
     99 H99        23.7473   -2.2873   -2.6879 H         1 UNK         0.3024 
    100 H100       26.2327   -0.4983   -0.8557 H         1 UNK         0.1171 
    101 H101       24.1408    0.3468    0.2242 H         1 UNK         0.0786 
    102 H102       24.8232   -0.9975    1.1228 H         1 UNK         0.0786 
    103 H103       23.4129   -1.2483    0.0923 H         1 UNK         0.0786 
    104 H104       25.0736   -3.0423   -0.3886 H         1 UNK         0.2977 
    105 H105       25.8125    1.5626   -4.0161 H         1 UNK         0.3127 
    106 H106       25.9039    4.3197   -4.5858 H         1 UNK         0.0770 
    107 H107       23.5868    2.3356   -4.8941 H         1 UNK         0.0814 
    108 H108       23.4270    4.0859   -4.8359 H         1 UNK         0.0814 
    109 H109       24.0086    3.2146   -3.4257 H         1 UNK         0.0814 
    110 H110       25.3448    1.5534   -6.8070 H         1 UNK         0.2983 
    111 H111       24.9285    3.1556   -9.1590 H         1 UNK         0.0947 
    112 H112       25.1971    0.9591  -10.3267 H         1 UNK         0.0806 
    113 H113       24.1161    0.8104   -8.9505 H         1 UNK         0.0806 
    114 H114       25.7750    0.2238   -8.8373 H         1 UNK         0.0806 
    115 H115       27.7856    2.2608   -7.4457 H         1 UNK         0.3000 
    116 H116       29.9652    2.3926   -7.7151 H         1 UNK         0.0850 
    117 H117       30.9744    4.1337   -9.1512 H         1 UNK         0.0810 
    118 H118       29.5852    4.7915   -8.3004 H         1 UNK         0.0810 
    119 H119       29.4587    4.3672  -10.0075 H         1 UNK         0.0810 
    120 H120       28.9880    0.1560   -8.5345 H         1 UNK         0.3040 
    121 H121       29.3465   -0.5666  -11.2857 H         1 UNK         0.0766 
    122 H122       27.6584   -1.6093   -9.7969 H         1 UNK         0.0812 
    123 H123       28.9367   -2.2833   -8.7882 H         1 UNK         0.0812 
    124 H124       28.7409   -2.8304  -10.4478 H         1 UNK         0.0812 
    125 H125       31.6259    0.4284  -11.1639 H         1 UNK         0.3205 
    126 H126       33.8099    0.2364  -11.5786 H         1 UNK         0.0754 
    127 H127       34.6720   -1.8525  -12.5870 H         1 UNK         0.0769 
    128 H128       33.0684   -1.5065  -13.2114 H         1 UNK         0.0769 
    129 H129       33.2888   -2.7569  -11.9881 H         1 UNK         0.0769 
    130 H130       33.1998    0.4249   -8.9441 H         1 UNK         0.2981 
    131 H131       34.3019   -1.5617   -7.2845 H         1 UNK         0.0541 
    132 H132       36.1700   -1.5256   -5.8312 H         1 UNK         0.3459 
    133 H133       37.5907   -0.6242   -6.2892 H         1 UNK         0.3459 
    134 H134       33.7947   -0.0805   -5.4318 H         1 UNK         0.0612 
    135 H135       33.8362    1.3381   -6.4478 H         1 UNK         0.0612 
    136 H136       32.1738   -2.2066   -6.6421 H         1 UNK         0.0624 
    137 H137       30.4775   -1.8242   -6.7337 H         1 UNK         0.0624 
@<TRIPOS>BOND
     1    1    2 1    
     2    1   72 1    
     3    1   73 1    
     4    1   74 1    
     5    2    3 2    
     6    2    4 am   BACKBONE|DICT|INTERRES
     7    4    5 1    
     8    4   75 1    
     9    5    6 1    
    10    5   35 1    
    11    5   76 1    
    12    6    7 1    
    13    6   77 1    
    14    6   78 1    
    15    7    8 1    
    16    8    9 1    
    17    8   79 1    
    18    8   80 1    
    19    9   10 ar   
    20    9   14 ar   
    21   10   11 ar   
    22   10   81 1    
    23   11   12 ar   
    24   11   71 1    
    25   12   13 ar   
    26   12   82 1    
    27   13   14 ar   
    28   13   15 1    
    29   14   83 1    
    30   15   16 1    
    31   15   84 1    
    32   15   85 1    
    33   16   17 1    
    34   17   18 1    
    35   17   86 1    
    36   17   87 1    
    37   18   19 1    
    38   18   37 1    
    39   18   88 1    
    40   19   20 am   BACKBONE|DICT|INTERRES
    41   19   89 1    
    42   20   21 2    
    43   20   22 1    
    44   22   23 1    
    45   22   24 1    
    46   22   90 1    
    47   23   91 1    
    48   23   92 1    
    49   23   93 1    
    50   24   25 am   BACKBONE|DICT|INTERRES
    51   24   94 1    
    52   25   26 2    
    53   25   27 1    
    54   27   28 1    
    55   27   29 1    
    56   27   95 1    
    57   28   96 1    
    58   28   97 1    
    59   28   98 1    
    60   29   30 am   BACKBONE|DICT|INTERRES
    61   29   99 1    
    62   30   31 2    
    63   30   32 1    
    64   32   33 1    
    65   32   34 1    
    66   32  100 1    
    67   33  101 1    
    68   33  102 1    
    69   33  103 1    
    70   34   35 am   BACKBONE|DICT|INTERRES
    71   34  104 1    
    72   35   36 2    
    73   37   38 2    
    74   37   39 am   BACKBONE|DICT|INTERRES
    75   39   40 1    
    76   39  105 1    
    77   40   41 1    
    78   40   42 1    
    79   40  106 1    
    80   41  107 1    
    81   41  108 1    
    82   41  109 1    
    83   42   43 2    
    84   42   44 am   BACKBONE|DICT|INTERRES
    85   44   45 1    
    86   44  110 1    
    87   45   46 1    
    88   45   47 1    
    89   45  111 1    
    90   46  112 1    
    91   46  113 1    
    92   46  114 1    
    93   47   48 2    
    94   47   49 am   BACKBONE|DICT|INTERRES
    95   49   50 1    
    96   49  115 1    
    97   50   51 1    
    98   50   52 1    
    99   50  116 1    
   100   51  117 1    
   101   51  118 1    
   102   51  119 1    
   103   52   53 2    
   104   52   54 am   BACKBONE|DICT|INTERRES
   105   54   55 1    
   106   54  120 1    
   107   55   56 1    
   108   55   57 1    
   109   55  121 1    
   110   56  122 1    
   111   56  123 1    
   112   56  124 1    
   113   57   58 2    
   114   57   59 am   BACKBONE|DICT|INTERRES
   115   59   60 1    
   116   59  125 1    
   117   60   61 1    
   118   60   62 1    
   119   60  126 1    
   120   61  127 1    
   121   61  128 1    
   122   61  129 1    
   123   62   63 2    
   124   62   64 am   BACKBONE|DICT|INTERRES
   125   64   65 1    
   126   64  130 1    
   127   65   66 1    
   128   65   69 1    
   129   65  131 1    
   130   66   67 am   BACKBONE|DICT|INTERRES
   131   66   68 2    
   132   67  132 1    
   133   67  133 1    
   134   69   70 1    
   135   69  134 1    
   136   69  135 1    
   137   70   71 1    
   138   71  136 1    
   139   71  137 1    
@<TRIPOS>SUBSTRUCTURE
     1 UNK         1 GROUP             0       ****    0 ROOT    
