@<TRIPOS>MOLECULE
3R137
137   139    1
SMALL
USER_CHARGES


@<TRIPOS>ATOM
      1 CA         25.0187   -7.1953    0.7788 C.3       0 UNK        -0.2020 
      2 C          25.5618   -5.7988    1.0416 C.2       0 UNK         0.4855 
      3 O          25.1291   -5.1424    1.9892 O.2       0 UNK        -0.5197 
      4 N          26.5086   -5.3416    0.2117 N.am      1 UNK        -0.4892 
      5 CA         27.1518   -4.0225    0.3097 C.3       1 UNK         0.0835 
      6 C6         28.4043   -3.9242   -0.5941 C.3       12 UNK        -0.0855 
      7 S7         29.6519   -5.1952   -0.1993 S.3       12 UNK        -0.2931 
      8 C8         31.2016   -4.2604   -0.4472 C.3       12 UNK         0.0378 
      9 C9         31.4695   -3.7915   -1.8804 C.ar      12 UNK        -0.0802 
     10 C10        32.3796   -2.7480   -2.0790 C.ar      12 UNK        -0.0944 
     11 C11        32.7000   -2.3132   -3.3677 C.ar      12 UNK        -0.0787 
     12 C12        32.1073   -2.9331   -4.4687 C.ar      12 UNK        -0.0862 
     13 C13        31.1592   -3.9446   -4.2926 C.ar      12 UNK        -0.0733 
     14 C14        30.8629   -4.3832   -2.9984 C.ar      12 UNK        -0.0832 
     15 C15        30.4647   -4.5851   -5.4907 C.3       12 UNK         0.0240 
     16 S16        29.9665   -3.3856   -6.7736 S.3       12 UNK        -0.2522 
     17 C17        28.7288   -2.3694   -5.9013 C.3       12 UNK        -0.0967 
     18 CA         27.9488   -1.4507   -6.8803 C.3       5 UNK         0.0660 
     19 N          26.5584   -1.2533   -6.4526 N.am      5 UNK        -0.4015 
     20 C          25.5901   -0.7767   -7.2502 C.2       4 UNK         0.4946 
     21 O          25.7689   -0.4661   -8.4265 O.2       4 UNK        -0.5353 
     22 CA         24.1973   -0.5633   -6.6299 C.3       4 UNK         0.0277 
     23 CB         23.3648   -1.8513   -6.7290 C.3       4 UNK        -0.1981 
     24 N          24.2219   -0.1066   -5.2383 N.am      4 UNK        -0.4209 
     25 C          24.8833    0.9623   -4.7707 C.2       3 UNK         0.4942 
     26 O          25.5397    1.7192   -5.4850 O.2       3 UNK        -0.5208 
     27 CA         24.8432    1.2221   -3.2532 C.3       3 UNK         0.0250 
     28 CB         23.9777    2.4551   -2.9474 C.3       3 UNK        -0.1990 
     29 N          24.3727    0.0897   -2.4448 N.am      3 UNK        -0.4232 
     30 C          24.9797   -1.1015   -2.3475 C.2       2 UNK         0.4993 
     31 O          25.9943   -1.4112   -2.9797 O.2       2 UNK        -0.5286 
     32 CA         24.2852   -2.1372   -1.4470 C.3       2 UNK         0.0209 
     33 CB         23.1829   -2.8715   -2.2291 C.3       2 UNK        -0.1931 
     34 N          25.2290   -3.1244   -0.9244 N.am      2 UNK        -0.4546 
     35 C          26.1845   -2.8673   -0.0202 C.2       1 UNK         0.5154 
     36 O          26.3201   -1.7796    0.5433 O.2       1 UNK        -0.5181 
     37 C          28.6803   -0.1120   -7.1413 C.2       5 UNK         0.5014 
     38 O          29.5217   -0.0388   -8.0409 O.2       5 UNK        -0.5248 
     39 N          28.3328    0.9348   -6.3780 N.am      6 UNK        -0.4434 
     40 CA         28.8274    2.2970   -6.5821 C.3       6 UNK         0.0363 
     41 CB         28.7016    3.1040   -5.2801 C.3       6 UNK        -0.1936 
     42 C          28.0945    2.9924   -7.7382 C.2       6 UNK         0.5081 
     43 O          28.7405    3.6705   -8.5346 O.2       6 UNK        -0.5248 
     44 N          26.7744    2.7805   -7.8479 N.am      7 UNK        -0.4718 
     45 CA         25.9354    3.2859   -8.9422 C.3       7 UNK         0.0273 
     46 CB         24.4584    2.9891   -8.6429 C.3       7 UNK        -0.1935 
     47 C          26.3366    2.7220  -10.3178 C.2       7 UNK         0.5018 
     48 O          26.3135    3.4574  -11.3049 O.2       7 UNK        -0.5186 
     49 N          26.7465    1.4461  -10.3468 N.am      8 UNK        -0.4240 
     50 CA         27.3381    0.7710  -11.5056 C.3       8 UNK         0.0235 
     51 CB         27.2930   -0.7485  -11.2681 C.3       8 UNK        -0.2000 
     52 C          28.7815    1.2147  -11.8198 C.2       8 UNK         0.4941 
     53 O          29.3107    0.8057  -12.8539 O.2       8 UNK        -0.5273 
     54 N          29.3999    2.0081  -10.9300 N.am      9 UNK        -0.4262 
     55 CA         30.7804    2.5043  -10.9758 C.3       9 UNK         0.0264 
     56 CB         30.9974    3.4384  -12.1858 C.3       9 UNK        -0.1955 
     57 C          31.8430    1.3926  -10.8750 C.2       9 UNK         0.5031 
     58 O          32.9690    1.5854  -11.3389 O.2       9 UNK        -0.5390 
     59 N          31.4838    0.2591  -10.2562 N.am      10 UNK        -0.4204 
     60 CA         32.4105   -0.8216   -9.9228 C.3       10 UNK         0.0237 
     61 CB         31.6531   -2.1557   -9.8543 C.3       10 UNK        -0.1985 
     62 C          33.1419   -0.5054   -8.6101 C.2       10 UNK         0.4970 
     63 O          34.3625   -0.6570   -8.5494 O.2       10 UNK        -0.4914 
     64 N          32.3936   -0.0230   -7.6092 N.am      11 UNK        -0.4285 
     65 CA         32.9381    0.6330   -6.4148 C.3       11 UNK         0.1007 
     66 C          33.2490    2.1292   -6.6935 C.2       11 UNK         0.5703 
     67 N          34.2337    2.6976   -6.0118 N.am      11 UNK        -0.7361 
     68 O          32.5903    2.7849   -7.4991 O.2       11 UNK        -0.4986 
     69 C69        31.9983    0.4469   -5.1930 C.3       12 UNK        -0.0947 
     70 S70        32.8924    0.4535   -3.6003 S.3       12 UNK        -0.2240 
     71 C71        33.6965   -1.1837   -3.5741 C.3       12 UNK         0.0194 
     72 H72        23.9461   -7.1516    0.5919 H         1 UNK         0.0906 
     73 H73        25.1879   -7.8328    1.6462 H         1 UNK         0.0906 
     74 H74        25.4943   -7.6632   -0.0831 H         1 UNK         0.0906 
     75 H75        26.8548   -5.9389   -0.5264 H         1 UNK         0.3140 
     76 H76        27.4679   -3.8844    1.3463 H         1 UNK         0.1085 
     77 H77        28.8628   -2.9379   -0.4934 H         1 UNK         0.0836 
     78 H78        28.1318   -4.0233   -1.6469 H         1 UNK         0.0836 
     79 H79        31.1982   -3.4033    0.2283 H         1 UNK         0.0731 
     80 H80        32.0340   -4.8925   -0.1351 H         1 UNK         0.0731 
     81 H81        32.8508   -2.2769   -1.2268 H         1 UNK         0.1312 
     82 H82        32.3670   -2.6081   -5.4669 H         1 UNK         0.1406 
     83 H83        30.1590   -5.1931   -2.8701 H         1 UNK         0.1631 
     84 H84        29.5810   -5.1415   -5.1744 H         1 UNK         0.0717 
     85 H85        31.1444   -5.3112   -5.9381 H         1 UNK         0.0717 
     86 H86        28.0454   -3.0606   -5.4048 H         1 UNK         0.0934 
     87 H87        29.2092   -1.8022   -5.1010 H         1 UNK         0.0934 
     88 H88        27.8906   -1.9592   -7.8458 H         1 UNK         0.0739 
     89 H89        26.3375   -1.4634   -5.4878 H         1 UNK         0.3093 
     90 H90        23.6938    0.2099   -7.2115 H         1 UNK         0.0818 
     91 H91        23.3152   -2.2049   -7.7601 H         1 UNK         0.0819 
     92 H92        23.7903   -2.6565   -6.1285 H         1 UNK         0.0819 
     93 H93        22.3395   -1.6890   -6.3961 H         1 UNK         0.0819 
     94 H94        23.7094   -0.6645   -4.5721 H         1 UNK         0.3041 
     95 H95        25.8680    1.4402   -2.9454 H         1 UNK         0.0784 
     96 H96        24.3235    3.3247   -3.5087 H         1 UNK         0.0793 
     97 H97        22.9325    2.2913   -3.2131 H         1 UNK         0.0793 
     98 H98        24.0200    2.7190   -1.8905 H         1 UNK         0.0793 
     99 H99        23.5307    0.2480   -1.9091 H         1 UNK         0.3024 
    100 H100       23.8349   -1.6172   -0.5980 H         1 UNK         0.1171 
    101 H101       22.4278   -2.1750   -2.5961 H         1 UNK         0.0786 
    102 H102       22.6680   -3.5984   -1.6002 H         1 UNK         0.0786 
    103 H103       23.5852   -3.4020   -3.0935 H         1 UNK         0.0786 
    104 H104       25.2083   -4.0428   -1.3421 H         1 UNK         0.2977 
    105 H105       27.5787    0.8275   -5.7125 H         1 UNK         0.3127 
    106 H106       29.8857    2.2513   -6.8472 H         1 UNK         0.0770 
    107 H107       29.2441    2.6284   -4.4632 H         1 UNK         0.0814 
    108 H108       29.1175    4.1046   -5.4051 H         1 UNK         0.0814 
    109 H109       27.6633    3.2215   -4.9694 H         1 UNK         0.0814 
    110 H110       26.3058    2.2607   -7.1089 H         1 UNK         0.2983 
    111 H111       26.0654    4.3697   -8.9795 H         1 UNK         0.0947 
    112 H112       24.2527    1.9196   -8.6649 H         1 UNK         0.0806 
    113 H113       23.8108    3.4583   -9.3846 H         1 UNK         0.0806 
    114 H114       24.1636    3.3699   -7.6647 H         1 UNK         0.0806 
    115 H115       26.6312    0.8833   -9.5073 H         1 UNK         0.3000 
    116 H116       26.7303    1.0010  -12.3831 H         1 UNK         0.0850 
    117 H117       27.6927   -1.2944  -12.1237 H         1 UNK         0.0810 
    118 H118       26.2711   -1.0953  -11.1137 H         1 UNK         0.0810 
    119 H119       27.8792   -1.0357  -10.3939 H         1 UNK         0.0810 
    120 H120       28.8744    2.3149  -10.1189 H         1 UNK         0.3040 
    121 H121       30.9082    3.1069  -10.0753 H         1 UNK         0.0766 
    122 H122       30.9680    2.8936  -13.1298 H         1 UNK         0.0812 
    123 H123       31.9673    3.9339  -12.1282 H         1 UNK         0.0812 
    124 H124       30.2384    4.2197  -12.2239 H         1 UNK         0.0812 
    125 H125       30.5588    0.2050   -9.8432 H         1 UNK         0.3205 
    126 H126       33.1632   -0.9089  -10.7095 H         1 UNK         0.0754 
    127 H127       32.2996   -2.9603   -9.5012 H         1 UNK         0.0769 
    128 H128       31.2798   -2.4448  -10.8368 H         1 UNK         0.0769 
    129 H129       30.7984   -2.0998   -9.1827 H         1 UNK         0.0769 
    130 H130       31.3927    0.0716   -7.7554 H         1 UNK         0.2981 
    131 H131       33.8882    0.1466   -6.1911 H         1 UNK         0.0541 
    132 H132       34.4422    3.6705   -6.1717 H         1 UNK         0.3459 
    133 H133       34.7573    2.1777   -5.3249 H         1 UNK         0.3459 
    134 H134       31.4367   -0.4823   -5.2698 H         1 UNK         0.0612 
    135 H135       31.2383    1.2279   -5.1589 H         1 UNK         0.0612 
    136 H136       34.4316   -1.1929   -2.7680 H         1 UNK         0.0624 
    137 H137       34.2614   -1.3412   -4.4932 H         1 UNK         0.0624 
@<TRIPOS>BOND
     1    1    2 1    
     2    1   72 1    
     3    1   73 1    
     4    1   74 1    
     5    2    3 2    
     6    2    4 am   BACKBONE|DICT|INTERRES
     7    4    5 1    
     8    4   75 1    
     9    5    6 1    
    10    5   35 1    
    11    5   76 1    
    12    6    7 1    
    13    6   77 1    
    14    6   78 1    
    15    7    8 1    
    16    8    9 1    
    17    8   79 1    
    18    8   80 1    
    19    9   10 ar   
    20    9   14 ar   
    21   10   11 ar   
    22   10   81 1    
    23   11   12 ar   
    24   11   71 1    
    25   12   13 ar   
    26   12   82 1    
    27   13   14 ar   
    28   13   15 1    
    29   14   83 1    
    30   15   16 1    
    31   15   84 1    
    32   15   85 1    
    33   16   17 1    
    34   17   18 1    
    35   17   86 1    
    36   17   87 1    
    37   18   19 1    
    38   18   37 1    
    39   18   88 1    
    40   19   20 am   BACKBONE|DICT|INTERRES
    41   19   89 1    
    42   20   21 2    
    43   20   22 1    
    44   22   23 1    
    45   22   24 1    
    46   22   90 1    
    47   23   91 1    
    48   23   92 1    
    49   23   93 1    
    50   24   25 am   BACKBONE|DICT|INTERRES
    51   24   94 1    
    52   25   26 2    
    53   25   27 1    
    54   27   28 1    
    55   27   29 1    
    56   27   95 1    
    57   28   96 1    
    58   28   97 1    
    59   28   98 1    
    60   29   30 am   BACKBONE|DICT|INTERRES
    61   29   99 1    
    62   30   31 2    
    63   30   32 1    
    64   32   33 1    
    65   32   34 1    
    66   32  100 1    
    67   33  101 1    
    68   33  102 1    
    69   33  103 1    
    70   34   35 am   BACKBONE|DICT|INTERRES
    71   34  104 1    
    72   35   36 2    
    73   37   38 2    
    74   37   39 am   BACKBONE|DICT|INTERRES
    75   39   40 1    
    76   39  105 1    
    77   40   41 1    
    78   40   42 1    
    79   40  106 1    
    80   41  107 1    
    81   41  108 1    
    82   41  109 1    
    83   42   43 2    
    84   42   44 am   BACKBONE|DICT|INTERRES
    85   44   45 1    
    86   44  110 1    
    87   45   46 1    
    88   45   47 1    
    89   45  111 1    
    90   46  112 1    
    91   46  113 1    
    92   46  114 1    
    93   47   48 2    
    94   47   49 am   BACKBONE|DICT|INTERRES
    95   49   50 1    
    96   49  115 1    
    97   50   51 1    
    98   50   52 1    
    99   50  116 1    
   100   51  117 1    
   101   51  118 1    
   102   51  119 1    
   103   52   53 2    
   104   52   54 am   BACKBONE|DICT|INTERRES
   105   54   55 1    
   106   54  120 1    
   107   55   56 1    
   108   55   57 1    
   109   55  121 1    
   110   56  122 1    
   111   56  123 1    
   112   56  124 1    
   113   57   58 2    
   114   57   59 am   BACKBONE|DICT|INTERRES
   115   59   60 1    
   116   59  125 1    
   117   60   61 1    
   118   60   62 1    
   119   60  126 1    
   120   61  127 1    
   121   61  128 1    
   122   61  129 1    
   123   62   63 2    
   124   62   64 am   BACKBONE|DICT|INTERRES
   125   64   65 1    
   126   64  130 1    
   127   65   66 1    
   128   65   69 1    
   129   65  131 1    
   130   66   67 am   BACKBONE|DICT|INTERRES
   131   66   68 2    
   132   67  132 1    
   133   67  133 1    
   134   69   70 1    
   135   69  134 1    
   136   69  135 1    
   137   70   71 1    
   138   71  136 1    
   139   71  137 1    
@<TRIPOS>SUBSTRUCTURE
     1 UNK         1 GROUP             0       ****    0 ROOT    
