@<TRIPOS>MOLECULE
3R137
137   139    1
SMALL
USER_CHARGES


@<TRIPOS>ATOM
      1 CA         29.7121   -5.8846   -2.6478 C.3       0 UNK        -0.2020 
      2 C          29.0403   -5.1287   -1.5117 C.2       0 UNK         0.4855 
      3 O          28.4399   -5.7464   -0.6323 O.2       0 UNK        -0.5197 
      4 N          29.1439   -3.7939   -1.5237 N.am      1 UNK        -0.4892 
      5 CA         28.5947   -2.8847   -0.5070 C.3       1 UNK         0.0835 
      6 C6         29.1625   -1.4479   -0.6373 C.3       12 UNK        -0.0855 
      7 S7         30.9891   -1.3813   -0.5872 S.3       12 UNK        -0.2931 
      8 C8         31.4017   -0.6374   -2.1998 C.3       12 UNK         0.0378 
      9 C9         31.4675   -1.6749   -3.3119 C.ar      12 UNK        -0.0802 
     10 C10        32.7025   -2.1747   -3.7342 C.ar      12 UNK        -0.0944 
     11 C11        32.7730   -3.0867   -4.7898 C.ar      12 UNK        -0.0787 
     12 C12        31.5940   -3.5209   -5.4016 C.ar      12 UNK        -0.0862 
     13 C13        30.3476   -3.0374   -4.9925 C.ar      12 UNK        -0.0733 
     14 C14        30.2998   -2.1043   -3.9474 C.ar      12 UNK        -0.0832 
     15 C15        29.1043   -3.5413   -5.7348 C.3       12 UNK         0.0240 
     16 S16        27.4879   -3.0357   -5.0500 S.3       12 UNK        -0.2522 
     17 C17        27.4693   -1.2548   -5.4530 C.3       12 UNK        -0.0967 
     18 CA         26.3969   -0.8536   -6.4941 C.3       5 UNK         0.0660 
     19 N          25.0473   -1.2408   -6.0759 N.am      5 UNK        -0.4015 
     20 C          24.0099   -1.4050   -6.9105 C.2       4 UNK         0.4946 
     21 O          24.0900   -1.2455   -8.1290 O.2       4 UNK        -0.5353 
     22 CA         22.6498   -1.8074   -6.3057 C.3       4 UNK         0.0277 
     23 CB         22.3610   -3.2918   -6.5847 C.3       4 UNK        -0.1981 
     24 N          22.5373   -1.5663   -4.8656 N.am      4 UNK        -0.4209 
     25 C          22.5482   -0.3631   -4.2739 C.2       3 UNK         0.4942 
     26 O          22.5947    0.7005   -4.8914 O.2       3 UNK        -0.5208 
     27 CA         22.5679   -0.3514   -2.7327 C.3       3 UNK         0.0250 
     28 CB         21.1417   -0.2106   -2.1772 C.3       3 UNK        -0.1990 
     29 N          23.2091   -1.5370   -2.1443 N.am      3 UNK        -0.4232 
     30 C          24.4914   -1.8772   -2.3383 C.2       2 UNK         0.4993 
     31 O          25.2719   -1.2123   -3.0224 O.2       2 UNK        -0.5286 
     32 CA         24.9453   -3.2195   -1.7479 C.3       2 UNK         0.0209 
     33 CB         24.5396   -4.3719   -2.6832 C.3       2 UNK        -0.1931 
     34 N          26.3985   -3.2462   -1.5814 N.am      2 UNK        -0.4546 
     35 C          27.0489   -2.8423   -0.4824 C.2       1 UNK         0.5154 
     36 O          26.4767   -2.4436    0.5339 O.2       1 UNK        -0.5181 
     37 C          26.5294    0.6543   -6.7999 C.2       5 UNK         0.5014 
     38 O          27.6029    1.0554   -7.2466 O.2       5 UNK        -0.5248 
     39 N          25.4961    1.4676   -6.5215 N.am      6 UNK        -0.4434 
     40 CA         25.4856    2.9349   -6.6106 C.3       6 UNK         0.0363 
     41 CB         24.2371    3.4631   -5.8805 C.3       6 UNK        -0.1936 
     42 C          25.6047    3.4921   -8.0477 C.2       6 UNK         0.5081 
     43 O          24.6852    4.1443   -8.5455 O.2       6 UNK        -0.5248 
     44 N          26.7519    3.2332   -8.6747 N.am      7 UNK        -0.4718 
     45 CA         27.2025    3.6746   -9.9897 C.3       7 UNK         0.0273 
     46 CB         26.3943    2.9690  -11.1029 C.3       7 UNK        -0.1935 
     47 C          28.7148    3.3906  -10.0623 C.2       7 UNK         0.5018 
     48 O          29.3727    3.3097   -9.0208 O.2       7 UNK        -0.5186 
     49 N          29.2469    3.1802  -11.2751 N.am      8 UNK        -0.4240 
     50 CA         30.6363    2.7639  -11.5222 C.3       8 UNK         0.0235 
     51 CB         30.9082    2.7918  -13.0352 C.3       8 UNK        -0.2000 
     52 C          30.9962    1.3816  -10.9351 C.2       8 UNK         0.4941 
     53 O          32.1794    1.0839  -10.7683 O.2       8 UNK        -0.5273 
     54 N          29.9747    0.5757  -10.6104 N.am      9 UNK        -0.4262 
     55 CA         30.0721   -0.7298   -9.9564 C.3       9 UNK         0.0264 
     56 CB         28.6793   -1.3823   -9.9485 C.3       9 UNK        -0.1955 
     57 C          30.6525   -0.6961   -8.5290 C.2       9 UNK         0.5031 
     58 O          31.0780   -1.7455   -8.0536 O.2       9 UNK        -0.5390 
     59 N          30.6790    0.4779   -7.8790 N.am      10 UNK        -0.4204 
     60 CA         31.1558    0.6974   -6.5065 C.3       10 UNK         0.0237 
     61 CB         30.6936    2.0915   -6.0428 C.3       10 UNK        -0.1985 
     62 C          32.6747    0.5289   -6.2789 C.2       10 UNK         0.4970 
     63 O          33.1320    0.7906   -5.1652 O.2       10 UNK        -0.4914 
     64 N          33.4344    0.1375   -7.3112 N.am      11 UNK        -0.4285 
     65 CA         34.8917   -0.0871   -7.2827 C.3       11 UNK         0.1007 
     66 C          35.7435    1.2016   -7.0592 C.2       11 UNK         0.5703 
     67 N          35.1987    2.3969   -7.2556 N.am      11 UNK        -0.7361 
     68 O          36.9281    1.1238   -6.7407 O.2       11 UNK        -0.4986 
     69 C69        35.3133   -1.2627   -6.3481 C.3       12 UNK        -0.0947 
     70 S70        34.6100   -2.8662   -6.8643 S.3       12 UNK        -0.2240 
     71 C71        34.1170   -3.6098   -5.2748 C.3       12 UNK         0.0194 
     72 H72        28.9760   -6.1613   -3.4019 H         1 UNK         0.0906 
     73 H73        30.4876   -5.2868   -3.1262 H         1 UNK         0.0906 
     74 H74        30.1778   -6.7958   -2.2733 H         1 UNK         0.0906 
     75 H75        29.6964   -3.3522   -2.2459 H         1 UNK         0.3140 
     76 H76        28.9027   -3.2748    0.4658 H         1 UNK         0.1085 
     77 H77        28.8002   -0.8298    0.1869 H         1 UNK         0.0836 
     78 H78        28.7920   -0.9668   -1.5434 H         1 UNK         0.0836 
     79 H79        32.3653   -0.1331   -2.1104 H         1 UNK         0.0731 
     80 H80        30.6839    0.1444   -2.4526 H         1 UNK         0.0731 
     81 H81        33.6112   -1.8331   -3.2579 H         1 UNK         0.1312 
     82 H82        31.6515   -4.2215   -6.2236 H         1 UNK         0.1406 
     83 H83        29.3582   -1.6923   -3.6226 H         1 UNK         0.1631 
     84 H84        29.1282   -4.6318   -5.7486 H         1 UNK         0.0717 
     85 H85        29.1572   -3.2212   -6.7762 H         1 UNK         0.0717 
     86 H86        27.3273   -0.6979   -4.5252 H         1 UNK         0.0934 
     87 H87        28.4582   -0.9728   -5.8187 H         1 UNK         0.0934 
     88 H88        26.6257   -1.3822   -7.4216 H         1 UNK         0.0739 
     89 H89        24.9218   -1.3737   -5.0780 H         1 UNK         0.3093 
     90 H90        21.8852   -1.2078   -6.8044 H         1 UNK         0.0818 
     91 H91        23.0874   -3.9434   -6.0968 H         1 UNK         0.0819 
     92 H92        21.3669   -3.5761   -6.2391 H         1 UNK         0.0819 
     93 H93        22.4015   -3.5034   -7.6542 H         1 UNK         0.0819 
     94 H94        22.4891   -2.3824   -4.2739 H         1 UNK         0.3041 
     95 H95        23.1442    0.5235   -2.4239 H         1 UNK         0.0784 
     96 H96        20.6520    0.6767   -2.5815 H         1 UNK         0.0793 
     97 H97        20.5205   -1.0701   -2.4323 H         1 UNK         0.0793 
     98 H98        21.1463   -0.1083   -1.0918 H         1 UNK         0.0793 
     99 H99        22.6226   -2.1344   -1.5784 H         1 UNK         0.3024 
    100 H100       24.4621   -3.3620   -0.7783 H         1 UNK         0.1171 
    101 H101       24.9616   -4.2518   -3.6820 H         1 UNK         0.0786 
    102 H102       23.4560   -4.4310   -2.7913 H         1 UNK         0.0786 
    103 H103       24.8757   -5.3331   -2.2935 H         1 UNK         0.0786 
    104 H104       26.9428   -3.4983   -2.3943 H         1 UNK         0.2977 
    105 H105       24.6472    1.0463   -6.1680 H         1 UNK         0.3127 
    106 H106       26.3582    3.2997   -6.0645 H         1 UNK         0.0770 
    107 H107       23.3176    3.1118   -6.3504 H         1 UNK         0.0814 
    108 H108       24.2112    4.5536   -5.8846 H         1 UNK         0.0814 
    109 H109       24.2214    3.1448   -4.8379 H         1 UNK         0.0814 
    110 H110       27.4309    2.6566   -8.1769 H         1 UNK         0.2983 
    111 H111       27.0616    4.7546  -10.0633 H         1 UNK         0.0947 
    112 H112       26.6608    3.3420  -12.0921 H         1 UNK         0.0806 
    113 H113       25.3240    3.1405  -10.9890 H         1 UNK         0.0806 
    114 H114       26.5552    1.8902  -11.0962 H         1 UNK         0.0806 
    115 H115       28.6497    3.2649  -12.0852 H         1 UNK         0.3000 
    116 H116       31.2912    3.4942  -11.0419 H         1 UNK         0.0850 
    117 H117       31.9421    2.5182  -13.2512 H         1 UNK         0.0810 
    118 H118       30.7464    3.7868  -13.4504 H         1 UNK         0.0810 
    119 H119       30.2674    2.0927  -13.5741 H         1 UNK         0.0810 
    120 H120       29.0416    0.9132  -10.7925 H         1 UNK         0.3040 
    121 H121       30.7395   -1.3509  -10.5574 H         1 UNK         0.0766 
    122 H122       28.3070   -1.5378  -10.9612 H         1 UNK         0.0812 
    123 H123       27.9528   -0.7702   -9.4133 H         1 UNK         0.0812 
    124 H124       28.7049   -2.3585   -9.4616 H         1 UNK         0.0812 
    125 H125       30.2776    1.2854   -8.3407 H         1 UNK         0.3205 
    126 H126       30.6711   -0.0456   -5.8730 H         1 UNK         0.0754 
    127 H127       30.9705    2.2780   -5.0044 H         1 UNK         0.0769 
    128 H128       29.6114    2.1965   -6.1029 H         1 UNK         0.0769 
    129 H129       31.1377    2.8825   -6.6483 H         1 UNK         0.0769 
    130 H130       32.9779   -0.0539   -8.1909 H         1 UNK         0.2981 
    131 H131       35.1453   -0.3887   -8.2993 H         1 UNK         0.0541 
    132 H132       34.2331    2.4780   -7.5294 H         1 UNK         0.3459 
    133 H133       35.7594    3.2233   -7.1211 H         1 UNK         0.3459 
    134 H134       36.3971   -1.3881   -6.3499 H         1 UNK         0.0612 
    135 H135       35.0387   -1.0502   -5.3145 H         1 UNK         0.0612 
    136 H136       34.0519   -4.6911   -5.4030 H         1 UNK         0.0624 
    137 H137       34.8973   -3.4385   -4.5316 H         1 UNK         0.0624 
@<TRIPOS>BOND
     1    1    2 1    
     2    1   72 1    
     3    1   73 1    
     4    1   74 1    
     5    2    3 2    
     6    2    4 am   BACKBONE|DICT|INTERRES
     7    4    5 1    
     8    4   75 1    
     9    5    6 1    
    10    5   35 1    
    11    5   76 1    
    12    6    7 1    
    13    6   77 1    
    14    6   78 1    
    15    7    8 1    
    16    8    9 1    
    17    8   79 1    
    18    8   80 1    
    19    9   10 ar   
    20    9   14 ar   
    21   10   11 ar   
    22   10   81 1    
    23   11   12 ar   
    24   11   71 1    
    25   12   13 ar   
    26   12   82 1    
    27   13   14 ar   
    28   13   15 1    
    29   14   83 1    
    30   15   16 1    
    31   15   84 1    
    32   15   85 1    
    33   16   17 1    
    34   17   18 1    
    35   17   86 1    
    36   17   87 1    
    37   18   19 1    
    38   18   37 1    
    39   18   88 1    
    40   19   20 am   BACKBONE|DICT|INTERRES
    41   19   89 1    
    42   20   21 2    
    43   20   22 1    
    44   22   23 1    
    45   22   24 1    
    46   22   90 1    
    47   23   91 1    
    48   23   92 1    
    49   23   93 1    
    50   24   25 am   BACKBONE|DICT|INTERRES
    51   24   94 1    
    52   25   26 2    
    53   25   27 1    
    54   27   28 1    
    55   27   29 1    
    56   27   95 1    
    57   28   96 1    
    58   28   97 1    
    59   28   98 1    
    60   29   30 am   BACKBONE|DICT|INTERRES
    61   29   99 1    
    62   30   31 2    
    63   30   32 1    
    64   32   33 1    
    65   32   34 1    
    66   32  100 1    
    67   33  101 1    
    68   33  102 1    
    69   33  103 1    
    70   34   35 am   BACKBONE|DICT|INTERRES
    71   34  104 1    
    72   35   36 2    
    73   37   38 2    
    74   37   39 am   BACKBONE|DICT|INTERRES
    75   39   40 1    
    76   39  105 1    
    77   40   41 1    
    78   40   42 1    
    79   40  106 1    
    80   41  107 1    
    81   41  108 1    
    82   41  109 1    
    83   42   43 2    
    84   42   44 am   BACKBONE|DICT|INTERRES
    85   44   45 1    
    86   44  110 1    
    87   45   46 1    
    88   45   47 1    
    89   45  111 1    
    90   46  112 1    
    91   46  113 1    
    92   46  114 1    
    93   47   48 2    
    94   47   49 am   BACKBONE|DICT|INTERRES
    95   49   50 1    
    96   49  115 1    
    97   50   51 1    
    98   50   52 1    
    99   50  116 1    
   100   51  117 1    
   101   51  118 1    
   102   51  119 1    
   103   52   53 2    
   104   52   54 am   BACKBONE|DICT|INTERRES
   105   54   55 1    
   106   54  120 1    
   107   55   56 1    
   108   55   57 1    
   109   55  121 1    
   110   56  122 1    
   111   56  123 1    
   112   56  124 1    
   113   57   58 2    
   114   57   59 am   BACKBONE|DICT|INTERRES
   115   59   60 1    
   116   59  125 1    
   117   60   61 1    
   118   60   62 1    
   119   60  126 1    
   120   61  127 1    
   121   61  128 1    
   122   61  129 1    
   123   62   63 2    
   124   62   64 am   BACKBONE|DICT|INTERRES
   125   64   65 1    
   126   64  130 1    
   127   65   66 1    
   128   65   69 1    
   129   65  131 1    
   130   66   67 am   BACKBONE|DICT|INTERRES
   131   66   68 2    
   132   67  132 1    
   133   67  133 1    
   134   69   70 1    
   135   69  134 1    
   136   69  135 1    
   137   70   71 1    
   138   71  136 1    
   139   71  137 1    
@<TRIPOS>SUBSTRUCTURE
     1 UNK         1 GROUP             0       ****    0 ROOT    
