@<TRIPOS>MOLECULE
3R137
137   139    1
SMALL
USER_CHARGES


@<TRIPOS>ATOM
      1 CA         26.1453   -0.1757    1.9860 C.3       0 UNK        -0.2020 
      2 C          26.7786   -0.5352    0.6505 C.2       0 UNK         0.4855 
      3 O          26.7479    0.2712   -0.2770 O.2       0 UNK        -0.5197 
      4 N          27.3424   -1.7453    0.5437 N.am      1 UNK        -0.4892 
      5 CA         28.0437   -2.2533   -0.6469 C.3       1 UNK         0.0835 
      6 C6         29.0681   -3.3550   -0.2737 C.3       12 UNK        -0.0855 
      7 S7         30.3511   -2.7128    0.8591 S.3       12 UNK        -0.2931 
      8 C8         31.8950   -2.9711   -0.0807 C.3       12 UNK         0.0378 
      9 C9         31.9096   -2.2969   -1.4498 C.ar      12 UNK        -0.0802 
     10 C10        32.2620   -3.0397   -2.5820 C.ar      12 UNK        -0.0944 
     11 C11        32.3023   -2.4393   -3.8435 C.ar      12 UNK        -0.0787 
     12 C12        31.9748   -1.0883   -3.9722 C.ar      12 UNK        -0.0862 
     13 C13        31.6043   -0.3378   -2.8544 C.ar      12 UNK        -0.0733 
     14 C14        31.5946   -0.9400   -1.5913 C.ar      12 UNK        -0.0832 
     15 C15        31.1854    1.1143   -3.0308 C.3       12 UNK         0.0240 
     16 S16        29.4347    1.4079   -2.6110 S.3       12 UNK        -0.2522 
     17 C17        28.5438    0.0428   -3.4428 C.3       12 UNK        -0.0967 
     18 CA         28.3347    0.2006   -4.9635 C.3       5 UNK         0.0660 
     19 N          27.7427   -1.0075   -5.5419 N.am      5 UNK        -0.4015 
     20 C          27.8254   -1.3461   -6.8359 C.2       4 UNK         0.4946 
     21 O          28.4894   -0.7276   -7.6662 O.2       4 UNK        -0.5353 
     22 CA         27.0023   -2.5562   -7.3072 C.3       4 UNK         0.0277 
     23 CB         27.7909   -3.8615   -7.1269 C.3       4 UNK        -0.1981 
     24 N          25.7082   -2.6658   -6.6361 N.am      4 UNK        -0.4209 
     25 C          24.7128   -1.7757   -6.7570 C.2       3 UNK         0.4942 
     26 O          24.7650   -0.7832   -7.4832 O.2       3 UNK        -0.5208 
     27 CA         23.4622   -2.0134   -5.8926 C.3       3 UNK         0.0250 
     28 CB         22.4170   -2.8229   -6.6762 C.3       3 UNK        -0.1990 
     29 N          23.7357   -2.6786   -4.6135 N.am      3 UNK        -0.4232 
     30 C          24.5573   -2.2226   -3.6562 C.2       2 UNK         0.4993 
     31 O          25.1940   -1.1686   -3.7570 O.2       2 UNK        -0.5286 
     32 CA         24.6630   -3.0950   -2.3859 C.3       2 UNK         0.0209 
     33 CB         24.7326   -4.6070   -2.7037 C.3       2 UNK        -0.1931 
     34 N          25.7694   -2.7142   -1.4981 N.am      2 UNK        -0.4546 
     35 C          27.0846   -2.7307   -1.7656 C.2       1 UNK         0.5154 
     36 O          27.5549   -3.1041   -2.8421 O.2       1 UNK        -0.5181 
     37 C          27.4856    1.4364   -5.3080 C.2       5 UNK         0.5014 
     38 O          28.0523    2.4645   -5.6778 O.2       5 UNK        -0.5248 
     39 N          26.1500    1.3126   -5.2233 N.am      6 UNK        -0.4434 
     40 CA         25.1889    2.3851   -5.5207 C.3       6 UNK         0.0363 
     41 CB         23.7624    1.9006   -5.2234 C.3       6 UNK        -0.1936 
     42 C          25.2786    2.9362   -6.9578 C.2       6 UNK         0.5081 
     43 O          24.9741    4.1093   -7.1733 O.2       6 UNK        -0.5248 
     44 N          25.7298    2.1001   -7.9034 N.am      7 UNK        -0.4718 
     45 CA         26.0625    2.4748   -9.2817 C.3       7 UNK         0.0273 
     46 CB         26.3016    1.1895  -10.0924 C.3       7 UNK        -0.1935 
     47 C          27.2781    3.4198   -9.4078 C.2       7 UNK         0.5018 
     48 O          27.4410    4.0349  -10.4619 O.2       7 UNK        -0.5186 
     49 N          28.1021    3.5034   -8.3516 N.am      8 UNK        -0.4240 
     50 CA         29.3454    4.2681   -8.2118 C.3       8 UNK         0.0235 
     51 CB         29.0097    5.7629   -8.0239 C.3       8 UNK        -0.2000 
     52 C          30.3814    4.0254   -9.3360 C.2       8 UNK         0.4941 
     53 O          30.7514    4.9778  -10.0232 O.2       8 UNK        -0.5273 
     54 N          30.8773    2.7991   -9.5532 N.am      9 UNK        -0.4262 
     55 CA         30.5459    1.5206   -8.9290 C.3       9 UNK         0.0264 
     56 CB         31.4140    1.2783   -7.6817 C.3       9 UNK        -0.1955 
     57 C          30.7819    0.4424   -9.9899 C.2       9 UNK         0.5031 
     58 O          31.7333    0.5576  -10.7672 O.2       9 UNK        -0.5390 
     59 N          29.9247   -0.5829  -10.0033 N.am      10 UNK        -0.4204 
     60 CA         29.9790   -1.6938  -10.9579 C.3       10 UNK         0.0237 
     61 CB         28.6236   -2.4177  -10.9846 C.3       10 UNK        -0.1985 
     62 C          31.1138   -2.6783  -10.6377 C.2       10 UNK         0.4970 
     63 O          31.7330   -3.2114  -11.5587 O.2       10 UNK        -0.4914 
     64 N          31.3690   -2.8818   -9.3405 N.am      11 UNK        -0.4285 
     65 CA         32.4731   -3.6884   -8.8032 C.3       11 UNK         0.1007 
     66 C          33.8073   -2.9036   -8.6258 C.2       11 UNK         0.5703 
     67 N          33.8936   -1.6333   -9.0058 N.am      11 UNK        -0.7361 
     68 O          34.7919   -3.4634   -8.1499 O.2       11 UNK        -0.4986 
     69 C69        32.0406   -4.4552   -7.5234 C.3       12 UNK        -0.0947 
     70 S70        31.3063   -3.4013   -6.2265 S.3       12 UNK        -0.2240 
     71 C71        32.6997   -3.2423   -5.0715 C.3       12 UNK         0.0194 
     72 H72        26.2369   -0.9827    2.7127 H         1 UNK         0.0906 
     73 H73        26.6261    0.7097    2.4012 H         1 UNK         0.0906 
     74 H74        25.0861    0.0430    1.8529 H         1 UNK         0.0906 
     75 H75        27.3498   -2.3617    1.3448 H         1 UNK         0.3140 
     76 H76        28.6096   -1.4213   -1.0674 H         1 UNK         0.1085 
     77 H77        29.5489   -3.7570   -1.1678 H         1 UNK         0.0836 
     78 H78        28.5691   -4.1997    0.2046 H         1 UNK         0.0836 
     79 H79        32.0607   -4.0453   -0.1771 H         1 UNK         0.0731 
     80 H80        32.7296   -2.5855    0.5062 H         1 UNK         0.0731 
     81 H81        32.5118   -4.0872   -2.4815 H         1 UNK         0.1312 
     82 H82        31.9899   -0.6303   -4.9517 H         1 UNK         0.1406 
     83 H83        31.3125   -0.3593   -0.7232 H         1 UNK         0.1631 
     84 H84        31.3530    1.4441   -4.0575 H         1 UNK         0.0717 
     85 H85        31.8111    1.7481   -2.4012 H         1 UNK         0.0717 
     86 H86        29.0721   -0.8911   -3.2543 H         1 UNK         0.0934 
     87 H87        27.5778   -0.0600   -2.9453 H         1 UNK         0.0934 
     88 H88        29.3177    0.3405   -5.4184 H         1 UNK         0.0739 
     89 H89        27.1613   -1.5611   -4.9245 H         1 UNK         0.3093 
     90 H90        26.8022   -2.4199   -8.3717 H         1 UNK         0.0818 
     91 H91        28.7261   -3.8304   -7.6863 H         1 UNK         0.0819 
     92 H92        28.0420   -4.0427   -6.0805 H         1 UNK         0.0819 
     93 H93        27.2290   -4.7209   -7.4929 H         1 UNK         0.0819 
     94 H94        25.5771   -3.4506   -6.0150 H         1 UNK         0.3041 
     95 H95        23.0299   -1.0398   -5.6616 H         1 UNK         0.0784 
     96 H96        22.1767   -2.3359   -7.6227 H         1 UNK         0.0793 
     97 H97        22.7728   -3.8276   -6.9082 H         1 UNK         0.0793 
     98 H98        21.4852   -2.9159   -6.1179 H         1 UNK         0.0793 
     99 H99        23.2444   -3.5453   -4.4481 H         1 UNK         0.3024 
    100 H100       23.7481   -2.9121   -1.8197 H         1 UNK         0.1171 
    101 H101       24.8800   -5.1931   -1.7963 H         1 UNK         0.0786 
    102 H102       23.8108   -4.9678   -3.1606 H         1 UNK         0.0786 
    103 H103       25.5516   -4.8425   -3.3845 H         1 UNK         0.0786 
    104 H104       25.4996   -2.3428   -0.5984 H         1 UNK         0.2977 
    105 H105       25.7667    0.4389   -4.8741 H         1 UNK         0.3127 
    106 H106       25.4162    3.2094   -4.8416 H         1 UNK         0.0770 
    107 H107       23.4307    1.1681   -5.9581 H         1 UNK         0.0814 
    108 H108       23.0576    2.7322   -5.2608 H         1 UNK         0.0814 
    109 H109       23.6849    1.4519   -4.2327 H         1 UNK         0.0814 
    110 H110       25.8617    1.1273   -7.6506 H         1 UNK         0.2983 
    111 H111       25.2017    2.9970   -9.7048 H         1 UNK         0.0947 
    112 H112       27.1397    0.6147   -9.6978 H         1 UNK         0.0806 
    113 H113       26.5243    1.4177  -11.1356 H         1 UNK         0.0806 
    114 H114       25.4223    0.5449  -10.0824 H         1 UNK         0.0806 
    115 H115       27.8589    2.9677   -7.5222 H         1 UNK         0.3000 
    116 H116       29.8122    3.9256   -7.2878 H         1 UNK         0.0850 
    117 H117       28.3425    5.9135   -7.1751 H         1 UNK         0.0810 
    118 H118       28.5269    6.1824   -8.9073 H         1 UNK         0.0810 
    119 H119       29.9111    6.3471   -7.8344 H         1 UNK         0.0810 
    120 H120       31.5276    2.6823  -10.3210 H         1 UNK         0.3040 
    121 H121       29.4976    1.4790   -8.6467 H         1 UNK         0.0766 
    122 H122       31.2055    0.2985   -7.2497 H         1 UNK         0.0812 
    123 H123       31.2189    2.0182   -6.9062 H         1 UNK         0.0812 
    124 H124       32.4783    1.3114   -7.9183 H         1 UNK         0.0812 
    125 H125       29.2326   -0.6370   -9.2535 H         1 UNK         0.3205 
    126 H126       30.1636   -1.2818  -11.9526 H         1 UNK         0.0754 
    127 H127       28.6116   -3.1892  -11.7556 H         1 UNK         0.0769 
    128 H128       27.8073   -1.7286  -11.2026 H         1 UNK         0.0769 
    129 H129       28.4083   -2.9066  -10.0352 H         1 UNK         0.0769 
    130 H130       30.8178   -2.3921   -8.6513 H         1 UNK         0.2981 
    131 H131       32.7119   -4.4549   -9.5427 H         1 UNK         0.0541 
    132 H132       34.7687   -1.1474   -8.8902 H         1 UNK         0.3459 
    133 H133       33.1148   -1.1700   -9.4465 H         1 UNK         0.3459 
    134 H134       31.2844   -5.1932   -7.7947 H         1 UNK         0.0612 
    135 H135       32.8686   -5.0342   -7.1107 H         1 UNK         0.0612 
    136 H136       33.0468   -4.2369   -4.7875 H         1 UNK         0.0624 
    137 H137       33.5339   -2.7484   -5.5713 H         1 UNK         0.0624 
@<TRIPOS>BOND
     1    1    2 1    
     2    1   72 1    
     3    1   73 1    
     4    1   74 1    
     5    2    3 2    
     6    2    4 am   BACKBONE|DICT|INTERRES
     7    4    5 1    
     8    4   75 1    
     9    5    6 1    
    10    5   35 1    
    11    5   76 1    
    12    6    7 1    
    13    6   77 1    
    14    6   78 1    
    15    7    8 1    
    16    8    9 1    
    17    8   79 1    
    18    8   80 1    
    19    9   10 ar   
    20    9   14 ar   
    21   10   11 ar   
    22   10   81 1    
    23   11   12 ar   
    24   11   71 1    
    25   12   13 ar   
    26   12   82 1    
    27   13   14 ar   
    28   13   15 1    
    29   14   83 1    
    30   15   16 1    
    31   15   84 1    
    32   15   85 1    
    33   16   17 1    
    34   17   18 1    
    35   17   86 1    
    36   17   87 1    
    37   18   19 1    
    38   18   37 1    
    39   18   88 1    
    40   19   20 am   BACKBONE|DICT|INTERRES
    41   19   89 1    
    42   20   21 2    
    43   20   22 1    
    44   22   23 1    
    45   22   24 1    
    46   22   90 1    
    47   23   91 1    
    48   23   92 1    
    49   23   93 1    
    50   24   25 am   BACKBONE|DICT|INTERRES
    51   24   94 1    
    52   25   26 2    
    53   25   27 1    
    54   27   28 1    
    55   27   29 1    
    56   27   95 1    
    57   28   96 1    
    58   28   97 1    
    59   28   98 1    
    60   29   30 am   BACKBONE|DICT|INTERRES
    61   29   99 1    
    62   30   31 2    
    63   30   32 1    
    64   32   33 1    
    65   32   34 1    
    66   32  100 1    
    67   33  101 1    
    68   33  102 1    
    69   33  103 1    
    70   34   35 am   BACKBONE|DICT|INTERRES
    71   34  104 1    
    72   35   36 2    
    73   37   38 2    
    74   37   39 am   BACKBONE|DICT|INTERRES
    75   39   40 1    
    76   39  105 1    
    77   40   41 1    
    78   40   42 1    
    79   40  106 1    
    80   41  107 1    
    81   41  108 1    
    82   41  109 1    
    83   42   43 2    
    84   42   44 am   BACKBONE|DICT|INTERRES
    85   44   45 1    
    86   44  110 1    
    87   45   46 1    
    88   45   47 1    
    89   45  111 1    
    90   46  112 1    
    91   46  113 1    
    92   46  114 1    
    93   47   48 2    
    94   47   49 am   BACKBONE|DICT|INTERRES
    95   49   50 1    
    96   49  115 1    
    97   50   51 1    
    98   50   52 1    
    99   50  116 1    
   100   51  117 1    
   101   51  118 1    
   102   51  119 1    
   103   52   53 2    
   104   52   54 am   BACKBONE|DICT|INTERRES
   105   54   55 1    
   106   54  120 1    
   107   55   56 1    
   108   55   57 1    
   109   55  121 1    
   110   56  122 1    
   111   56  123 1    
   112   56  124 1    
   113   57   58 2    
   114   57   59 am   BACKBONE|DICT|INTERRES
   115   59   60 1    
   116   59  125 1    
   117   60   61 1    
   118   60   62 1    
   119   60  126 1    
   120   61  127 1    
   121   61  128 1    
   122   61  129 1    
   123   62   63 2    
   124   62   64 am   BACKBONE|DICT|INTERRES
   125   64   65 1    
   126   64  130 1    
   127   65   66 1    
   128   65   69 1    
   129   65  131 1    
   130   66   67 am   BACKBONE|DICT|INTERRES
   131   66   68 2    
   132   67  132 1    
   133   67  133 1    
   134   69   70 1    
   135   69  134 1    
   136   69  135 1    
   137   70   71 1    
   138   71  136 1    
   139   71  137 1    
@<TRIPOS>SUBSTRUCTURE
     1 UNK         1 GROUP             0       ****    0 ROOT    
