@<TRIPOS>MOLECULE
3R137
137   139    1
SMALL
USER_CHARGES


@<TRIPOS>ATOM
      1 CA         29.3413   -0.6548   -1.0056 C.3       0 UNK        -0.2020 
      2 C          29.5938   -1.4991    0.2426 C.2       0 UNK         0.4855 
      3 O          30.2368   -1.0177    1.1733 O.2       0 UNK        -0.5197 
      4 N          29.1303   -2.7554    0.3148 N.am      1 UNK        -0.4892 
      5 CA         28.2938   -3.4491   -0.6721 C.3       1 UNK         0.0835 
      6 C6         28.2609   -4.9814   -0.4275 C.3       12 UNK        -0.0855 
      7 S7         29.8197   -5.9495   -0.5450 S.3       12 UNK        -0.2931 
      8 C8         31.1658   -4.8460   -1.1228 C.3       12 UNK         0.0378 
      9 C9         30.9623   -4.1910   -2.4893 C.ar      12 UNK        -0.0802 
     10 C10        31.6500   -3.0057   -2.7724 C.ar      12 UNK        -0.0944 
     11 C11        31.4516   -2.3235   -3.9774 C.ar      12 UNK        -0.0787 
     12 C12        30.5406   -2.8433   -4.9044 C.ar      12 UNK        -0.0862 
     13 C13        29.8529   -4.0299   -4.6416 C.ar      12 UNK        -0.0733 
     14 C14        30.0875   -4.7154   -3.4489 C.ar      12 UNK        -0.0832 
     15 C15        28.8270   -4.5487   -5.6322 C.3       12 UNK         0.0240 
     16 S16        27.1505   -4.0289   -5.1424 S.3       12 UNK        -0.2522 
     17 C17        26.3550   -3.8690   -6.7788 C.3       12 UNK        -0.0967 
     18 CA         26.2091   -2.4262   -7.3390 C.3       5 UNK         0.0660 
     19 N          25.0275   -1.7186   -6.8389 N.am      5 UNK        -0.4015 
     20 C          24.4531   -0.6984   -7.4965 C.2       4 UNK         0.4946 
     21 O          24.8611   -0.2638   -8.5749 O.2       4 UNK        -0.5353 
     22 CA         23.2338   -0.0351   -6.8372 C.3       4 UNK         0.0277 
     23 CB         21.9752   -0.8982   -7.0228 C.3       4 UNK        -0.1981 
     24 N          23.4384    0.2439   -5.4157 N.am      4 UNK        -0.4209 
     25 C          24.3306    1.1228   -4.9374 C.2       3 UNK         0.4942 
     26 O          25.0648    1.8117   -5.6445 O.2       3 UNK        -0.5208 
     27 CA         24.4521    1.2197   -3.4068 C.3       3 UNK         0.0250 
     28 CB         23.4155    2.2051   -2.8438 C.3       3 UNK        -0.1990 
     29 N          24.3320   -0.0715   -2.7181 N.am      3 UNK        -0.4232 
     30 C          25.1353   -1.1212   -2.9357 C.2       2 UNK         0.4993 
     31 O          26.0219   -1.1384   -3.7923 O.2       2 UNK        -0.5286 
     32 CA         24.8883   -2.3761   -2.0925 C.3       2 UNK         0.0209 
     33 CB         23.9901   -3.3631   -2.8565 C.3       2 UNK        -0.1931 
     34 N          26.1790   -3.0085   -1.8256 N.am      2 UNK        -0.4546 
     35 C          26.8591   -2.8803   -0.6807 C.2       1 UNK         0.5154 
     36 O          26.3985   -2.3481    0.3330 O.2       1 UNK        -0.5181 
     37 C          27.4755   -1.5528   -7.2255 C.2       5 UNK         0.5014 
     38 O          28.2971   -1.5784   -8.1399 O.2       5 UNK        -0.5248 
     39 N          27.5858   -0.7595   -6.1482 N.am      6 UNK        -0.4434 
     40 CA         28.6376    0.2379   -5.9450 C.3       6 UNK         0.0363 
     41 CB         28.5106    0.8435   -4.5405 C.3       6 UNK        -0.1936 
     42 C          28.6379    1.3268   -7.0273 C.2       6 UNK         0.5081 
     43 O          29.7033    1.6517   -7.5498 O.2       6 UNK        -0.5248 
     44 N          27.4491    1.8315   -7.3876 N.am      7 UNK        -0.4718 
     45 CA         27.2593    2.7739   -8.4922 C.3       7 UNK         0.0273 
     46 CB         25.8163    3.3024   -8.4875 C.3       7 UNK        -0.1935 
     47 C          27.6153    2.1673   -9.8598 C.2       7 UNK         0.5018 
     48 O          28.2819    2.8323  -10.6528 O.2       7 UNK        -0.5186 
     49 N          27.1903    0.9180  -10.1028 N.am      8 UNK        -0.4240 
     50 CA         27.4774    0.1710  -11.3314 C.3       8 UNK         0.0235 
     51 CB         26.6262   -1.1080  -11.3743 C.3       8 UNK        -0.2000 
     52 C          28.9701   -0.1612  -11.5035 C.2       8 UNK         0.4941 
     53 O          29.5064    0.0203  -12.5972 O.2       8 UNK        -0.5273 
     54 N          29.6145   -0.6305  -10.4265 N.am      9 UNK        -0.4262 
     55 CA         31.0402   -0.9698  -10.3881 C.3       9 UNK         0.0264 
     56 CB         31.2925   -1.9255   -9.2114 C.3       9 UNK        -0.1955 
     57 C          31.9687    0.2558  -10.2968 C.2       9 UNK         0.5031 
     58 O          33.1645    0.1093  -10.5548 O.2       9 UNK        -0.5390 
     59 N          31.4132    1.4218   -9.9346 N.am      10 UNK        -0.4204 
     60 CA         32.0823    2.7043   -9.6953 C.3       10 UNK         0.0237 
     61 CB         32.7470    3.2441  -10.9804 C.3       10 UNK        -0.1985 
     62 C          33.0374    2.6302   -8.4897 C.2       10 UNK         0.4970 
     63 O          34.2249    2.9380   -8.6142 O.2       10 UNK        -0.4914 
     64 N          32.4868    2.2220   -7.3432 N.am      11 UNK        -0.4285 
     65 CA         33.1734    2.1128   -6.0505 C.3       11 UNK         0.1007 
     66 C          32.2919    2.6341   -4.8818 C.2       11 UNK         0.5703 
     67 N          32.7382    2.4888   -3.6408 N.am      11 UNK        -0.7361 
     68 O          31.2237    3.2085   -5.0818 O.2       11 UNK        -0.4986 
     69 C69        33.7925    0.7025   -5.8238 C.3       12 UNK        -0.0947 
     70 S70        32.6216   -0.6926   -5.9623 S.3       12 UNK        -0.2240 
     71 C71        32.1903   -1.0059   -4.2170 C.3       12 UNK         0.0194 
     72 H72        29.9666    0.2377   -0.9929 H         1 UNK         0.0906 
     73 H73        29.5780   -1.2003   -1.9171 H         1 UNK         0.0906 
     74 H74        28.3021   -0.3299   -1.0494 H         1 UNK         0.0906 
     75 H75        29.2996   -3.2760    1.1632 H         1 UNK         0.3140 
     76 H76        28.6941   -3.2612   -1.6650 H         1 UNK         0.1085 
     77 H77        27.5741   -5.4483   -1.1368 H         1 UNK         0.0836 
     78 H78        27.8340   -5.1848    0.5569 H         1 UNK         0.0836 
     79 H79        31.3481   -4.0864   -0.3624 H         1 UNK         0.0731 
     80 H80        32.0806   -5.4377   -1.1729 H         1 UNK         0.0731 
     81 H81        32.3286   -2.5968   -2.0358 H         1 UNK         0.1312 
     82 H82        30.3533   -2.3266   -5.8338 H         1 UNK         0.1406 
     83 H83        29.5474   -5.6319   -3.2563 H         1 UNK         0.1631 
     84 H84        28.8681   -5.6373   -5.6907 H         1 UNK         0.0717 
     85 H85        29.0639   -4.1762   -6.6303 H         1 UNK         0.0717 
     86 H86        26.9118   -4.4751   -7.4956 H         1 UNK         0.0934 
     87 H87        25.3740   -4.3435   -6.7232 H         1 UNK         0.0934 
     88 H88        26.0425   -2.5570   -8.4106 H         1 UNK         0.0739 
     89 H89        24.6866   -1.9826   -5.9265 H         1 UNK         0.3093 
     90 H90        23.0675    0.9191   -7.3425 H         1 UNK         0.0818 
     91 H91        21.0876   -0.3907   -6.6445 H         1 UNK         0.0819 
     92 H92        21.7997   -1.1076   -8.0790 H         1 UNK         0.0819 
     93 H93        22.0579   -1.8572   -6.5099 H         1 UNK         0.0819 
     94 H94        22.8761   -0.2746   -4.7571 H         1 UNK         0.3041 
     95 H95        25.4464    1.6130   -3.1860 H         1 UNK         0.0784 
     96 H96        23.4988    3.1782   -3.3303 H         1 UNK         0.0793 
     97 H97        22.3948    1.8515   -2.9954 H         1 UNK         0.0793 
     98 H98        23.5604    2.3670   -1.7755 H         1 UNK         0.0793 
     99 H99        23.6166   -0.1394   -2.0080 H         1 UNK         0.3024 
    100 H100       24.3935   -2.0962   -1.1595 H         1 UNK         0.1171 
    101 H101       23.0102   -2.9278   -3.0564 H         1 UNK         0.0786 
    102 H102       23.8271   -4.2740   -2.2803 H         1 UNK         0.0786 
    103 H103       24.4222   -3.6498   -3.8158 H         1 UNK         0.0786 
    104 H104       26.6421   -3.3939   -2.6391 H         1 UNK         0.2977 
    105 H105       26.9027   -0.8547   -5.3979 H         1 UNK         0.3127 
    106 H106       29.5989   -0.2698   -6.0069 H         1 UNK         0.0770 
    107 H107       27.5702    1.3800   -4.4165 H         1 UNK         0.0814 
    108 H108       29.3179    1.5473   -4.3415 H         1 UNK         0.0814 
    109 H109       28.5582    0.0700   -3.7751 H         1 UNK         0.0814 
    110 H110       26.6180    1.5580   -6.8706 H         1 UNK         0.2983 
    111 H111       27.9304    3.6191   -8.3241 H         1 UNK         0.0947 
    112 H112       25.6553    4.0091   -9.3026 H         1 UNK         0.0806 
    113 H113       25.5898    3.8234   -7.5572 H         1 UNK         0.0806 
    114 H114       25.0899    2.4972   -8.6030 H         1 UNK         0.0806 
    115 H115       26.6032    0.4606   -9.4119 H         1 UNK         0.3000 
    116 H116       27.1815    0.7999  -12.1739 H         1 UNK         0.0850 
    117 H117       26.7869   -1.6520  -12.3060 H         1 UNK         0.0810 
    118 H118       25.5621   -0.8792  -11.3110 H         1 UNK         0.0810 
    119 H119       26.8720   -1.7844  -10.5558 H         1 UNK         0.0810 
    120 H120       29.0846   -0.8140   -9.5739 H         1 UNK         0.3040 
    121 H121       31.2932   -1.4970  -11.3105 H         1 UNK         0.0766 
    122 H122       32.3465   -2.1971   -9.1388 H         1 UNK         0.0812 
    123 H123       30.7239   -2.8491   -9.3208 H         1 UNK         0.0812 
    124 H124       31.0055   -1.4697   -8.2640 H         1 UNK         0.0812 
    125 H125       30.4352    1.3998   -9.6726 H         1 UNK         0.3205 
    126 H126       31.2939    3.4063   -9.4187 H         1 UNK         0.0754 
    127 H127       33.1397    4.2489  -10.8209 H         1 UNK         0.0769 
    128 H128       32.0312    3.3017  -11.8005 H         1 UNK         0.0769 
    129 H129       33.5798    2.6197  -11.3051 H         1 UNK         0.0769 
    130 H130       31.4872    2.0216   -7.3203 H         1 UNK         0.2981 
    131 H131       34.0033    2.8215   -6.0665 H         1 UNK         0.0541 
    132 H132       33.6270    2.0551   -3.4504 H         1 UNK         0.3459 
    133 H133       32.1820    2.8455   -2.8802 H         1 UNK         0.3459 
    134 H134       34.3204    0.6486   -4.8711 H         1 UNK         0.0612 
    135 H135       34.5623    0.5378   -6.5790 H         1 UNK         0.0612 
    136 H136       33.1077   -0.9889   -3.6270 H         1 UNK         0.0624 
    137 H137       31.5663   -0.1885   -3.8543 H         1 UNK         0.0624 
@<TRIPOS>BOND
     1    1    2 1    
     2    1   72 1    
     3    1   73 1    
     4    1   74 1    
     5    2    3 2    
     6    2    4 am   BACKBONE|DICT|INTERRES
     7    4    5 1    
     8    4   75 1    
     9    5    6 1    
    10    5   35 1    
    11    5   76 1    
    12    6    7 1    
    13    6   77 1    
    14    6   78 1    
    15    7    8 1    
    16    8    9 1    
    17    8   79 1    
    18    8   80 1    
    19    9   10 ar   
    20    9   14 ar   
    21   10   11 ar   
    22   10   81 1    
    23   11   12 ar   
    24   11   71 1    
    25   12   13 ar   
    26   12   82 1    
    27   13   14 ar   
    28   13   15 1    
    29   14   83 1    
    30   15   16 1    
    31   15   84 1    
    32   15   85 1    
    33   16   17 1    
    34   17   18 1    
    35   17   86 1    
    36   17   87 1    
    37   18   19 1    
    38   18   37 1    
    39   18   88 1    
    40   19   20 am   BACKBONE|DICT|INTERRES
    41   19   89 1    
    42   20   21 2    
    43   20   22 1    
    44   22   23 1    
    45   22   24 1    
    46   22   90 1    
    47   23   91 1    
    48   23   92 1    
    49   23   93 1    
    50   24   25 am   BACKBONE|DICT|INTERRES
    51   24   94 1    
    52   25   26 2    
    53   25   27 1    
    54   27   28 1    
    55   27   29 1    
    56   27   95 1    
    57   28   96 1    
    58   28   97 1    
    59   28   98 1    
    60   29   30 am   BACKBONE|DICT|INTERRES
    61   29   99 1    
    62   30   31 2    
    63   30   32 1    
    64   32   33 1    
    65   32   34 1    
    66   32  100 1    
    67   33  101 1    
    68   33  102 1    
    69   33  103 1    
    70   34   35 am   BACKBONE|DICT|INTERRES
    71   34  104 1    
    72   35   36 2    
    73   37   38 2    
    74   37   39 am   BACKBONE|DICT|INTERRES
    75   39   40 1    
    76   39  105 1    
    77   40   41 1    
    78   40   42 1    
    79   40  106 1    
    80   41  107 1    
    81   41  108 1    
    82   41  109 1    
    83   42   43 2    
    84   42   44 am   BACKBONE|DICT|INTERRES
    85   44   45 1    
    86   44  110 1    
    87   45   46 1    
    88   45   47 1    
    89   45  111 1    
    90   46  112 1    
    91   46  113 1    
    92   46  114 1    
    93   47   48 2    
    94   47   49 am   BACKBONE|DICT|INTERRES
    95   49   50 1    
    96   49  115 1    
    97   50   51 1    
    98   50   52 1    
    99   50  116 1    
   100   51  117 1    
   101   51  118 1    
   102   51  119 1    
   103   52   53 2    
   104   52   54 am   BACKBONE|DICT|INTERRES
   105   54   55 1    
   106   54  120 1    
   107   55   56 1    
   108   55   57 1    
   109   55  121 1    
   110   56  122 1    
   111   56  123 1    
   112   56  124 1    
   113   57   58 2    
   114   57   59 am   BACKBONE|DICT|INTERRES
   115   59   60 1    
   116   59  125 1    
   117   60   61 1    
   118   60   62 1    
   119   60  126 1    
   120   61  127 1    
   121   61  128 1    
   122   61  129 1    
   123   62   63 2    
   124   62   64 am   BACKBONE|DICT|INTERRES
   125   64   65 1    
   126   64  130 1    
   127   65   66 1    
   128   65   69 1    
   129   65  131 1    
   130   66   67 am   BACKBONE|DICT|INTERRES
   131   66   68 2    
   132   67  132 1    
   133   67  133 1    
   134   69   70 1    
   135   69  134 1    
   136   69  135 1    
   137   70   71 1    
   138   71  136 1    
   139   71  137 1    
@<TRIPOS>SUBSTRUCTURE
     1 UNK         1 GROUP             0       ****    0 ROOT    
