@<TRIPOS>MOLECULE
3R137
137   139    1
SMALL
USER_CHARGES


@<TRIPOS>ATOM
      1 CA         28.7340   -4.5005   -4.1649 C.3       0 UNK        -0.2020 
      2 C          27.9901   -3.5207   -3.2705 C.2       0 UNK         0.4855 
      3 O          27.5811   -2.4595   -3.7462 O.2       0 UNK        -0.5197 
      4 N          27.8031   -3.8960   -1.9961 N.am      1 UNK        -0.4892 
      5 CA         27.3285   -3.0937   -0.8529 C.3       1 UNK         0.0835 
      6 C6         28.4716   -2.2795   -0.1893 C.3       12 UNK        -0.0855 
      7 S7         29.8500   -3.3595    0.3497 S.3       12 UNK        -0.2931 
      8 C8         31.3080   -2.2684    0.2393 C.3       12 UNK         0.0378 
      9 C9         31.4928   -1.6936   -1.1570 C.ar      12 UNK        -0.0802 
     10 C10        31.8849   -2.5142   -2.2186 C.ar      12 UNK        -0.0944 
     11 C11        31.9833   -1.9965   -3.5138 C.ar      12 UNK        -0.0787 
     12 C12        31.6818   -0.6500   -3.7432 C.ar      12 UNK        -0.0862 
     13 C13        31.3080    0.1833   -2.6838 C.ar      12 UNK        -0.0733 
     14 C14        31.2355   -0.3408   -1.3909 C.ar      12 UNK        -0.0832 
     15 C15        30.9443    1.6402   -2.9393 C.3       12 UNK         0.0240 
     16 S16        29.2722    2.0721   -2.3382 S.3       12 UNK        -0.2522 
     17 C17        28.2356    0.7918   -3.1240 C.3       12 UNK        -0.0967 
     18 CA         27.9761    1.0801   -4.6224 C.3       5 UNK         0.0660 
     19 N          27.9076   -0.1544   -5.4075 N.am      5 UNK        -0.4015 
     20 C          27.9779   -0.1926   -6.7453 C.2       4 UNK         0.4946 
     21 O          28.1065    0.8068   -7.4495 O.2       4 UNK        -0.5353 
     22 CA         27.8218   -1.5638   -7.4221 C.3       4 UNK         0.0277 
     23 CB         29.1655   -2.3095   -7.4338 C.3       4 UNK        -0.1981 
     24 N          26.7875   -2.4067   -6.8133 N.am      4 UNK        -0.4209 
     25 C          25.5048   -2.0543   -6.6460 C.2       3 UNK         0.4942 
     26 O          25.0439   -0.9658   -6.9875 O.2       3 UNK        -0.5208 
     27 CA         24.5916   -3.0497   -5.9278 C.3       3 UNK         0.0250 
     28 CB         24.9642   -4.5270   -6.1632 C.3       3 UNK        -0.1990 
     29 N          24.6366   -2.7483   -4.4994 N.am      3 UNK        -0.4232 
     30 C          23.5655   -2.5437   -3.7216 C.2       2 UNK         0.4993 
     31 O          22.4043   -2.6010   -4.1293 O.2       2 UNK        -0.5286 
     32 CA         23.8343   -2.2391   -2.2375 C.3       2 UNK         0.0209 
     33 CB         22.6824   -2.6941   -1.3206 C.3       2 UNK        -0.1931 
     34 N          25.0812   -2.8675   -1.7940 N.am      2 UNK        -0.4546 
     35 C          26.0740   -2.2411   -1.1516 C.2       1 UNK         0.5154 
     36 O          26.0295   -1.0550   -0.8195 O.2       1 UNK        -0.5181 
     37 C          26.7424    1.9835   -4.8267 C.2       5 UNK         0.5014 
     38 O          26.8911    3.2048   -4.8787 O.2       5 UNK        -0.5248 
     39 N          25.5552    1.3756   -4.9732 N.am      6 UNK        -0.4434 
     40 CA         24.2998    2.0773   -5.2568 C.3       6 UNK         0.0363 
     41 CB         23.1082    1.1480   -4.9733 C.3       6 UNK        -0.1936 
     42 C          24.2521    2.6166   -6.6968 C.2       6 UNK         0.5081 
     43 O          23.7473    3.7174   -6.9176 O.2       6 UNK        -0.5248 
     44 N          24.8092    1.8484   -7.6425 N.am      7 UNK        -0.4718 
     45 CA         24.9849    2.2325   -9.0457 C.3       7 UNK         0.0273 
     46 CB         25.2688    0.9646   -9.8685 C.3       7 UNK        -0.1935 
     47 C          26.1029    3.2704   -9.2698 C.2       7 UNK         0.5018 
     48 O          26.1488    3.8671  -10.3463 O.2       7 UNK        -0.5186 
     49 N          26.9853    3.4437   -8.2732 N.am      8 UNK        -0.4240 
     50 CA         28.2221    4.2350   -8.2894 C.3       8 UNK         0.0235 
     51 CB         27.9224    5.7413   -8.4447 C.3       8 UNK        -0.2000 
     52 C          29.2352    3.7002   -9.3222 C.2       8 UNK         0.4941 
     53 O          29.8557    4.4796  -10.0488 O.2       8 UNK        -0.5273 
     54 N          29.3654    2.3705   -9.3704 N.am      9 UNK        -0.4262 
     55 CA         30.2425    1.6187  -10.2616 C.3       9 UNK         0.0264 
     56 CB         29.4079    0.5036  -10.9172 C.3       9 UNK        -0.1955 
     57 C          31.4127    1.0137   -9.4714 C.2       9 UNK         0.5031 
     58 O          31.3805    0.9676   -8.2384 O.2       9 UNK        -0.5390 
     59 N          32.4223    0.5328  -10.2071 N.am      10 UNK        -0.4204 
     60 CA         33.5437   -0.2399   -9.6688 C.3       10 UNK         0.0237 
     61 CB         34.6586   -0.3062  -10.7264 C.3       10 UNK        -0.1985 
     62 C          33.1031   -1.6566   -9.2593 C.2       10 UNK         0.4970 
     63 O          32.1236   -2.1771   -9.7991 O.2       10 UNK        -0.4914 
     64 N          33.8558   -2.2620   -8.3342 N.am      11 UNK        -0.4285 
     65 CA         33.5932   -3.6073   -7.7950 C.3       11 UNK         0.1007 
     66 C          33.8537   -4.7805   -8.7859 C.2       11 UNK         0.5703 
     67 N          34.5169   -4.5658   -9.9162 N.am      11 UNK        -0.7361 
     68 O          33.4409   -5.9075   -8.5229 O.2       11 UNK        -0.4986 
     69 C69        34.3350   -3.8526   -6.4526 C.3       12 UNK        -0.0947 
     70 S70        34.0891   -2.5382   -5.2121 S.3       12 UNK        -0.2240 
     71 C71        32.3927   -2.8950   -4.6694 C.3       12 UNK         0.0194 
     72 H72        28.9026   -5.4571   -3.6709 H         1 UNK         0.0906 
     73 H73        28.1781   -4.6889   -5.0808 H         1 UNK         0.0906 
     74 H74        29.7038   -4.0867   -4.4354 H         1 UNK         0.0906 
     75 H75        28.1498   -4.8059   -1.7252 H         1 UNK         0.3140 
     76 H76        26.9913   -3.8177   -0.1089 H         1 UNK         0.1085 
     77 H77        28.8270   -1.5216   -0.8863 H         1 UNK         0.0836 
     78 H78        28.1088   -1.7422    0.6889 H         1 UNK         0.0836 
     79 H79        32.1976   -2.8359    0.5159 H         1 UNK         0.0731 
     80 H80        31.2112   -1.4720    0.9790 H         1 UNK         0.0731 
     81 H81        32.0903   -3.5603   -2.0363 H         1 UNK         0.1312 
     82 H82        31.7389   -0.2550   -4.7489 H         1 UNK         0.1406 
     83 H83        30.9294    0.2991   -0.5742 H         1 UNK         0.1631 
     84 H84        31.0086    1.8741   -4.0029 H         1 UNK         0.0717 
     85 H85        31.6737    2.2800   -2.4411 H         1 UNK         0.0717 
     86 H86        28.7272   -0.1723   -2.9956 H         1 UNK         0.0934 
     87 H87        27.3031    0.6988   -2.5634 H         1 UNK         0.0934 
     88 H88        28.8311    1.6310   -5.0202 H         1 UNK         0.0739 
     89 H89        27.7988   -1.0232   -4.8868 H         1 UNK         0.3093 
     90 H90        27.5229   -1.3837   -8.4564 H         1 UNK         0.0818 
     91 H91        29.4962   -2.5549   -6.4250 H         1 UNK         0.0819 
     92 H92        29.1049   -3.2354   -8.0057 H         1 UNK         0.0819 
     93 H93        29.9460   -1.6993   -7.8922 H         1 UNK         0.0819 
     94 H94        27.0776   -3.3171   -6.4921 H         1 UNK         0.3041 
     95 H95        23.5879   -2.8878   -6.3272 H         1 UNK         0.0784 
     96 H96        25.0576   -4.7464   -7.2279 H         1 UNK         0.0793 
     97 H97        25.8994   -4.8048   -5.6792 H         1 UNK         0.0793 
     98 H98        24.1895   -5.1852   -5.7692 H         1 UNK         0.0793 
     99 H99        25.5609   -2.6296   -4.0956 H         1 UNK         0.3024 
    100 H100       23.9139   -1.1517   -2.1679 H         1 UNK         0.1171 
    101 H101       21.7476   -2.1982   -1.5855 H         1 UNK         0.0786 
    102 H102       22.8886   -2.4527   -0.2778 H         1 UNK         0.0786 
    103 H103       22.5148   -3.7695   -1.3894 H         1 UNK         0.0786 
    104 H104       25.2109   -3.8377   -2.0485 H         1 UNK         0.2977 
    105 H105       25.5256    0.3665   -4.9954 H         1 UNK         0.3127 
    106 H106       24.2280    2.9326   -4.5812 H         1 UNK         0.0770 
    107 H107       23.1182    0.2629   -5.6100 H         1 UNK         0.0814 
    108 H108       22.1638    1.6639   -5.1521 H         1 UNK         0.0814 
    109 H109       23.1019    0.8151   -3.9356 H         1 UNK         0.0814 
    110 H110       25.1251    0.9169   -7.3824 H         1 UNK         0.2983 
    111 H111       24.0517    2.6748   -9.4011 H         1 UNK         0.0947 
    112 H112       25.3553    1.1973  -10.9307 H         1 UNK         0.0806 
    113 H113       24.4683    0.2325   -9.7601 H         1 UNK         0.0806 
    114 H114       26.2011    0.4888   -9.5622 H         1 UNK         0.0806 
    115 H115       26.8636    2.8560   -7.4587 H         1 UNK         0.3000 
    116 H116       28.6833    4.0907   -7.3109 H         1 UNK         0.0850 
    117 H117       28.8306    6.3329   -8.3243 H         1 UNK         0.0810 
    118 H118       27.2113    6.0826   -7.6924 H         1 UNK         0.0810 
    119 H119       27.5115    5.9758   -9.4270 H         1 UNK         0.0810 
    120 H120       28.8806    1.8112   -8.6662 H         1 UNK         0.3040 
    121 H121       30.6452    2.2700  -11.0400 H         1 UNK         0.0766 
    122 H122       28.5566    0.9145  -11.4605 H         1 UNK         0.0812 
    123 H123       29.0227   -0.1974  -10.1754 H         1 UNK         0.0812 
    124 H124       30.0002   -0.0707  -11.6304 H         1 UNK         0.0812 
    125 H125       32.3513    0.5779  -11.2132 H         1 UNK         0.3205 
    126 H126       33.9259    0.2763   -8.7852 H         1 UNK         0.0754 
    127 H127       35.5322   -0.8365  -10.3448 H         1 UNK         0.0769 
    128 H128       34.9907    0.6912  -11.0154 H         1 UNK         0.0769 
    129 H129       34.3304   -0.8251  -11.6283 H         1 UNK         0.0769 
    130 H130       34.6508   -1.7782   -7.9436 H         1 UNK         0.2981 
    131 H131       32.5237   -3.6508   -7.5815 H         1 UNK         0.0541 
    132 H132       34.8564   -3.6456  -10.1433 H         1 UNK         0.3459 
    133 H133       34.6746   -5.3340  -10.5491 H         1 UNK         0.3459 
    134 H134       34.0273   -4.8021   -6.0104 H         1 UNK         0.0612 
    135 H135       35.4089   -3.9366   -6.6290 H         1 UNK         0.0612 
    136 H136       32.3167   -3.9458   -4.3854 H         1 UNK         0.0624 
    137 H137       31.7090   -2.7446   -5.5047 H         1 UNK         0.0624 
@<TRIPOS>BOND
     1    1    2 1    
     2    1   72 1    
     3    1   73 1    
     4    1   74 1    
     5    2    3 2    
     6    2    4 am   BACKBONE|DICT|INTERRES
     7    4    5 1    
     8    4   75 1    
     9    5    6 1    
    10    5   35 1    
    11    5   76 1    
    12    6    7 1    
    13    6   77 1    
    14    6   78 1    
    15    7    8 1    
    16    8    9 1    
    17    8   79 1    
    18    8   80 1    
    19    9   10 ar   
    20    9   14 ar   
    21   10   11 ar   
    22   10   81 1    
    23   11   12 ar   
    24   11   71 1    
    25   12   13 ar   
    26   12   82 1    
    27   13   14 ar   
    28   13   15 1    
    29   14   83 1    
    30   15   16 1    
    31   15   84 1    
    32   15   85 1    
    33   16   17 1    
    34   17   18 1    
    35   17   86 1    
    36   17   87 1    
    37   18   19 1    
    38   18   37 1    
    39   18   88 1    
    40   19   20 am   BACKBONE|DICT|INTERRES
    41   19   89 1    
    42   20   21 2    
    43   20   22 1    
    44   22   23 1    
    45   22   24 1    
    46   22   90 1    
    47   23   91 1    
    48   23   92 1    
    49   23   93 1    
    50   24   25 am   BACKBONE|DICT|INTERRES
    51   24   94 1    
    52   25   26 2    
    53   25   27 1    
    54   27   28 1    
    55   27   29 1    
    56   27   95 1    
    57   28   96 1    
    58   28   97 1    
    59   28   98 1    
    60   29   30 am   BACKBONE|DICT|INTERRES
    61   29   99 1    
    62   30   31 2    
    63   30   32 1    
    64   32   33 1    
    65   32   34 1    
    66   32  100 1    
    67   33  101 1    
    68   33  102 1    
    69   33  103 1    
    70   34   35 am   BACKBONE|DICT|INTERRES
    71   34  104 1    
    72   35   36 2    
    73   37   38 2    
    74   37   39 am   BACKBONE|DICT|INTERRES
    75   39   40 1    
    76   39  105 1    
    77   40   41 1    
    78   40   42 1    
    79   40  106 1    
    80   41  107 1    
    81   41  108 1    
    82   41  109 1    
    83   42   43 2    
    84   42   44 am   BACKBONE|DICT|INTERRES
    85   44   45 1    
    86   44  110 1    
    87   45   46 1    
    88   45   47 1    
    89   45  111 1    
    90   46  112 1    
    91   46  113 1    
    92   46  114 1    
    93   47   48 2    
    94   47   49 am   BACKBONE|DICT|INTERRES
    95   49   50 1    
    96   49  115 1    
    97   50   51 1    
    98   50   52 1    
    99   50  116 1    
   100   51  117 1    
   101   51  118 1    
   102   51  119 1    
   103   52   53 2    
   104   52   54 am   BACKBONE|DICT|INTERRES
   105   54   55 1    
   106   54  120 1    
   107   55   56 1    
   108   55   57 1    
   109   55  121 1    
   110   56  122 1    
   111   56  123 1    
   112   56  124 1    
   113   57   58 2    
   114   57   59 am   BACKBONE|DICT|INTERRES
   115   59   60 1    
   116   59  125 1    
   117   60   61 1    
   118   60   62 1    
   119   60  126 1    
   120   61  127 1    
   121   61  128 1    
   122   61  129 1    
   123   62   63 2    
   124   62   64 am   BACKBONE|DICT|INTERRES
   125   64   65 1    
   126   64  130 1    
   127   65   66 1    
   128   65   69 1    
   129   65  131 1    
   130   66   67 am   BACKBONE|DICT|INTERRES
   131   66   68 2    
   132   67  132 1    
   133   67  133 1    
   134   69   70 1    
   135   69  134 1    
   136   69  135 1    
   137   70   71 1    
   138   71  136 1    
   139   71  137 1    
@<TRIPOS>SUBSTRUCTURE
     1 UNK         1 GROUP             0       ****    0 ROOT    
