@<TRIPOS>MOLECULE
3R137
137   139    1
SMALL
USER_CHARGES


@<TRIPOS>ATOM
      1 CA         27.6820    0.2530   -2.3179 C.3       0 UNK        -0.2020 
      2 C          27.5638   -0.9483   -1.3950 C.2       0 UNK         0.4855 
      3 O          26.8436   -0.8871   -0.3987 O.2       0 UNK        -0.5197 
      4 N          28.2620   -2.0371   -1.7404 N.am      1 UNK        -0.4892 
      5 CA         28.3126   -3.3242   -1.0327 C.3       1 UNK         0.0835 
      6 C6         29.0289   -3.2552    0.3467 C.3       12 UNK        -0.0855 
      7 S7         30.6605   -2.4161    0.3966 S.3       12 UNK        -0.2931 
      8 C8         31.6445   -3.1566   -0.9543 C.3       12 UNK         0.0378 
      9 C9         31.4892   -2.3784   -2.2552 C.ar      12 UNK        -0.0802 
     10 C10        31.9825   -1.0719   -2.3606 C.ar      12 UNK        -0.0944 
     11 C11        31.7701   -0.3179   -3.5201 C.ar      12 UNK        -0.0787 
     12 C12        31.0154   -0.8726   -4.5592 C.ar      12 UNK        -0.0862 
     13 C13        30.5685   -2.1920   -4.4873 C.ar      12 UNK        -0.0733 
     14 C14        30.8343   -2.9522   -3.3477 C.ar      12 UNK        -0.0832 
     15 C15        29.7673   -2.7820   -5.6290 C.3       12 UNK         0.0240 
     16 S16        28.0109   -2.8175   -5.1821 S.3       12 UNK        -0.2522 
     17 C17        27.2115   -2.5020   -6.7923 C.3       12 UNK        -0.0967 
     18 CA         26.6516   -1.0645   -6.9299 C.3       5 UNK         0.0660 
     19 N          25.6199   -0.7830   -5.9136 N.am      5 UNK        -0.4015 
     20 C          24.8459    0.3142   -5.8672 C.2       4 UNK         0.4946 
     21 O          24.9683    1.2510   -6.6570 O.2       4 UNK        -0.5353 
     22 CA         23.7981    0.4106   -4.7362 C.3       4 UNK         0.0277 
     23 CB         22.7194    1.4800   -5.0144 C.3       4 UNK        -0.1981 
     24 N          23.1814   -0.8749   -4.3886 N.am      4 UNK        -0.4209 
     25 C          22.4879   -1.6924   -5.1965 C.2       3 UNK         0.4942 
     26 O          22.1911   -1.4131   -6.3595 O.2       3 UNK        -0.5208 
     27 CA         22.0629   -3.0607   -4.6113 C.3       3 UNK         0.0250 
     28 CB         21.9774   -4.1483   -5.7039 C.3       3 UNK        -0.1990 
     29 N          22.8792   -3.5565   -3.4870 N.am      3 UNK        -0.4232 
     30 C          24.2113   -3.7127   -3.4675 C.2       2 UNK         0.4993 
     31 O          24.9580   -3.3315   -4.3709 O.2       2 UNK        -0.5286 
     32 CA         24.8130   -4.4065   -2.2405 C.3       2 UNK         0.0209 
     33 CB         24.7730   -5.9373   -2.4055 C.3       2 UNK        -0.1931 
     34 N          26.1922   -3.9509   -2.0909 N.am      2 UNK        -0.4546 
     35 C          26.9179   -3.9906   -0.9663 C.2       1 UNK         0.5154 
     36 O          26.5187   -4.5035    0.0816 O.2       1 UNK        -0.5181 
     37 C          27.7830   -0.0090   -7.0450 C.2       5 UNK         0.5014 
     38 O          28.4778    0.0285   -8.0640 O.2       5 UNK        -0.5248 
     39 N          27.9302    0.8596   -6.0339 N.am      6 UNK        -0.4434 
     40 CA         28.7889    2.0457   -6.0694 C.3       6 UNK         0.0363 
     41 CB         28.8829    2.6624   -4.6663 C.3       6 UNK        -0.1936 
     42 C          28.3240    3.1037   -7.0869 C.2       6 UNK         0.5081 
     43 O          29.1663    3.8368   -7.6016 O.2       6 UNK        -0.5248 
     44 N          27.0210    3.1463   -7.4106 N.am      7 UNK        -0.4718 
     45 CA         26.4643    4.0178   -8.4542 C.3       7 UNK         0.0273 
     46 CB         24.9328    4.0605   -8.3334 C.3       7 UNK        -0.1935 
     47 C          26.8836    3.5871   -9.8716 C.2       7 UNK         0.5018 
     48 O          26.9658    4.4332  -10.7619 O.2       7 UNK        -0.5186 
     49 N          27.1791    2.2907  -10.0419 N.am      8 UNK        -0.4240 
     50 CA         27.7849    1.7155  -11.2447 C.3       8 UNK         0.0235 
     51 CB         27.3063    0.2599  -11.3916 C.3       8 UNK        -0.2000 
     52 C          29.3256    1.7833  -11.2169 C.2       8 UNK         0.4941 
     53 O          29.9544    1.3596  -12.1873 O.2       8 UNK        -0.5273 
     54 N          29.9046    2.2877  -10.1137 N.am      9 UNK        -0.4262 
     55 CA         31.3362    2.3950   -9.8117 C.3       9 UNK         0.0264 
     56 CB         32.0262    3.3931  -10.7657 C.3       9 UNK        -0.1955 
     57 C          32.0554    1.0340   -9.7467 C.2       9 UNK         0.5031 
     58 O          33.2562    0.9668  -10.0143 O.2       9 UNK        -0.5390 
     59 N          31.3324   -0.0292   -9.3660 N.am      10 UNK        -0.4204 
     60 CA         31.8319   -1.4080   -9.3233 C.3       10 UNK         0.0237 
     61 CB         30.6587   -2.3648   -9.6073 C.3       10 UNK        -0.1985 
     62 C          32.5843   -1.7489   -8.0183 C.2       10 UNK         0.4970 
     63 O          32.5312   -2.8949   -7.5694 O.2       10 UNK        -0.4914 
     64 N          33.2568   -0.7569   -7.4230 N.am      11 UNK        -0.4285 
     65 CA         34.0480   -0.8865   -6.1918 C.3       11 UNK         0.1007 
     66 C          35.3530   -1.7008   -6.4021 C.2       11 UNK         0.5703 
     67 N          35.8314   -2.3815   -5.3691 N.am      11 UNK        -0.7361 
     68 O          35.9560   -1.6902   -7.4743 O.2       11 UNK        -0.4986 
     69 C69        34.3534    0.4947   -5.5479 C.3       12 UNK        -0.0947 
     70 S70        32.8834    1.5552   -5.3096 S.3       12 UNK        -0.2240 
     71 C71        32.3437    1.0943   -3.6242 C.3       12 UNK         0.0194 
     72 H72        28.1900    1.0693   -1.8051 H         1 UNK         0.0906 
     73 H73        28.2478    0.0072   -3.2159 H         1 UNK         0.0906 
     74 H74        26.6933    0.5980   -2.6180 H         1 UNK         0.0906 
     75 H75        28.8473   -1.9917   -2.5647 H         1 UNK         0.3140 
     76 H76        28.8951   -3.9986   -1.6574 H         1 UNK         0.1085 
     77 H77        29.1665   -4.2632    0.7424 H         1 UNK         0.0836 
     78 H78        28.3887   -2.7417    1.0666 H         1 UNK         0.0836 
     79 H79        32.6963   -3.1464   -0.6652 H         1 UNK         0.0731 
     80 H80        31.3732   -4.2060   -1.0783 H         1 UNK         0.0731 
     81 H81        32.5181   -0.6377   -1.5273 H         1 UNK         0.1312 
     82 H82        30.8039   -0.2910   -5.4451 H         1 UNK         0.1406 
     83 H83        30.4835   -3.9740   -3.2995 H         1 UNK         0.1631 
     84 H84        29.9146   -2.1856   -6.5287 H         1 UNK         0.0717 
     85 H85        30.1137   -3.7901   -5.8610 H         1 UNK         0.0717 
     86 H86        26.3927   -3.2167   -6.8922 H         1 UNK         0.0934 
     87 H87        27.8938   -2.7374   -7.6102 H         1 UNK         0.0934 
     88 H88        26.1321   -1.0227   -7.8894 H         1 UNK         0.0739 
     89 H89        25.4429   -1.5390   -5.2576 H         1 UNK         0.3093 
     90 H90        24.3488    0.7294   -3.8503 H         1 UNK         0.0818 
     91 H91        22.0046    1.5470   -4.1944 H         1 UNK         0.0819 
     92 H92        23.1673    2.4676   -5.1329 H         1 UNK         0.0819 
     93 H93        22.1639    1.2660   -5.9281 H         1 UNK         0.0819 
     94 H94        23.3681   -1.2098   -3.4540 H         1 UNK         0.3041 
     95 H95        21.0575   -2.9119   -4.2145 H         1 UNK         0.0784 
     96 H96        21.2686   -3.8713   -6.4854 H         1 UNK         0.0793 
     97 H97        22.9440   -4.3115   -6.1825 H         1 UNK         0.0793 
     98 H98        21.6429   -5.1003   -5.2919 H         1 UNK         0.0793 
     99 H99        22.3530   -3.8719   -2.6831 H         1 UNK         0.3024 
    100 H100       24.2438   -4.1135   -1.3553 H         1 UNK         0.1171 
    101 H101       23.7502   -6.2917   -2.5394 H         1 UNK         0.0786 
    102 H102       25.1770   -6.4445   -1.5293 H         1 UNK         0.0786 
    103 H103       25.3477   -6.2612   -3.2742 H         1 UNK         0.0786 
    104 H104       26.5643   -3.4916   -2.9153 H         1 UNK         0.2977 
    105 H105       27.3099    0.7684   -5.2450 H         1 UNK         0.3127 
    106 H106       29.7898    1.7284   -6.3696 H         1 UNK         0.0770 
    107 H107       29.5071    3.5573   -4.6758 H         1 UNK         0.0814 
    108 H108       29.3362    1.9695   -3.9604 H         1 UNK         0.0814 
    109 H109       27.9041    2.9510   -4.2816 H         1 UNK         0.0814 
    110 H110       26.3715    2.4909   -6.9798 H         1 UNK         0.2983 
    111 H111       26.8468    5.0280   -8.2913 H         1 UNK         0.0947 
    112 H112       24.5062    4.7684   -9.0452 H         1 UNK         0.0806 
    113 H113       24.6204    4.3732   -7.3370 H         1 UNK         0.0806 
    114 H114       24.4837    3.0873   -8.5351 H         1 UNK         0.0806 
    115 H115       27.0937    1.6740   -9.2453 H         1 UNK         0.3000 
    116 H116       27.4503    2.2746  -12.1212 H         1 UNK         0.0850 
    117 H117       27.6825   -0.1835  -12.3144 H         1 UNK         0.0810 
    118 H118       26.2183    0.2010  -11.4267 H         1 UNK         0.0810 
    119 H119       27.6508   -0.3667  -10.5684 H         1 UNK         0.0810 
    120 H120       29.2979    2.6375   -9.3825 H         1 UNK         0.3040 
    121 H121       31.4013    2.8095   -8.8047 H         1 UNK         0.0766 
    122 H122       31.5064    4.3510  -10.7802 H         1 UNK         0.0812 
    123 H123       33.0527    3.5886  -10.4531 H         1 UNK         0.0812 
    124 H124       32.0651    3.0156  -11.7879 H         1 UNK         0.0812 
    125 H125       30.3623    0.1073   -9.0993 H         1 UNK         0.3205 
    126 H126       32.5548   -1.5411  -10.1310 H         1 UNK         0.0754 
    127 H127       30.9887   -3.4041   -9.6339 H         1 UNK         0.0769 
    128 H128       30.2018   -2.1497  -10.5736 H         1 UNK         0.0769 
    129 H129       29.8809   -2.2849   -8.8501 H         1 UNK         0.0769 
    130 H130       33.3103    0.1344   -7.8950 H         1 UNK         0.2981 
    131 H131       33.4458   -1.4589   -5.4869 H         1 UNK         0.0541 
    132 H132       36.6858   -2.9045   -5.4808 H         1 UNK         0.3459 
    133 H133       35.3514   -2.3894   -4.4827 H         1 UNK         0.3459 
    134 H134       35.0540    1.0512   -6.1730 H         1 UNK         0.0612 
    135 H135       34.8489    0.3641   -4.5843 H         1 UNK         0.0612 
    136 H136       33.1898    1.2121   -2.9455 H         1 UNK         0.0624 
    137 H137       31.5859    1.8042   -3.2937 H         1 UNK         0.0624 
@<TRIPOS>BOND
     1    1    2 1    
     2    1   72 1    
     3    1   73 1    
     4    1   74 1    
     5    2    3 2    
     6    2    4 am   BACKBONE|DICT|INTERRES
     7    4    5 1    
     8    4   75 1    
     9    5    6 1    
    10    5   35 1    
    11    5   76 1    
    12    6    7 1    
    13    6   77 1    
    14    6   78 1    
    15    7    8 1    
    16    8    9 1    
    17    8   79 1    
    18    8   80 1    
    19    9   10 ar   
    20    9   14 ar   
    21   10   11 ar   
    22   10   81 1    
    23   11   12 ar   
    24   11   71 1    
    25   12   13 ar   
    26   12   82 1    
    27   13   14 ar   
    28   13   15 1    
    29   14   83 1    
    30   15   16 1    
    31   15   84 1    
    32   15   85 1    
    33   16   17 1    
    34   17   18 1    
    35   17   86 1    
    36   17   87 1    
    37   18   19 1    
    38   18   37 1    
    39   18   88 1    
    40   19   20 am   BACKBONE|DICT|INTERRES
    41   19   89 1    
    42   20   21 2    
    43   20   22 1    
    44   22   23 1    
    45   22   24 1    
    46   22   90 1    
    47   23   91 1    
    48   23   92 1    
    49   23   93 1    
    50   24   25 am   BACKBONE|DICT|INTERRES
    51   24   94 1    
    52   25   26 2    
    53   25   27 1    
    54   27   28 1    
    55   27   29 1    
    56   27   95 1    
    57   28   96 1    
    58   28   97 1    
    59   28   98 1    
    60   29   30 am   BACKBONE|DICT|INTERRES
    61   29   99 1    
    62   30   31 2    
    63   30   32 1    
    64   32   33 1    
    65   32   34 1    
    66   32  100 1    
    67   33  101 1    
    68   33  102 1    
    69   33  103 1    
    70   34   35 am   BACKBONE|DICT|INTERRES
    71   34  104 1    
    72   35   36 2    
    73   37   38 2    
    74   37   39 am   BACKBONE|DICT|INTERRES
    75   39   40 1    
    76   39  105 1    
    77   40   41 1    
    78   40   42 1    
    79   40  106 1    
    80   41  107 1    
    81   41  108 1    
    82   41  109 1    
    83   42   43 2    
    84   42   44 am   BACKBONE|DICT|INTERRES
    85   44   45 1    
    86   44  110 1    
    87   45   46 1    
    88   45   47 1    
    89   45  111 1    
    90   46  112 1    
    91   46  113 1    
    92   46  114 1    
    93   47   48 2    
    94   47   49 am   BACKBONE|DICT|INTERRES
    95   49   50 1    
    96   49  115 1    
    97   50   51 1    
    98   50   52 1    
    99   50  116 1    
   100   51  117 1    
   101   51  118 1    
   102   51  119 1    
   103   52   53 2    
   104   52   54 am   BACKBONE|DICT|INTERRES
   105   54   55 1    
   106   54  120 1    
   107   55   56 1    
   108   55   57 1    
   109   55  121 1    
   110   56  122 1    
   111   56  123 1    
   112   56  124 1    
   113   57   58 2    
   114   57   59 am   BACKBONE|DICT|INTERRES
   115   59   60 1    
   116   59  125 1    
   117   60   61 1    
   118   60   62 1    
   119   60  126 1    
   120   61  127 1    
   121   61  128 1    
   122   61  129 1    
   123   62   63 2    
   124   62   64 am   BACKBONE|DICT|INTERRES
   125   64   65 1    
   126   64  130 1    
   127   65   66 1    
   128   65   69 1    
   129   65  131 1    
   130   66   67 am   BACKBONE|DICT|INTERRES
   131   66   68 2    
   132   67  132 1    
   133   67  133 1    
   134   69   70 1    
   135   69  134 1    
   136   69  135 1    
   137   70   71 1    
   138   71  136 1    
   139   71  137 1    
@<TRIPOS>SUBSTRUCTURE
     1 UNK         1 GROUP             0       ****    0 ROOT    
