@<TRIPOS>MOLECULE
3R137
137   139    1
SMALL
USER_CHARGES


@<TRIPOS>ATOM
      1 CA         31.5829    0.7466    0.0044 C.3       0 UNK        -0.2020 
      2 C          30.5382   -0.3562    0.0863 C.2       0 UNK         0.4855 
      3 O          29.9903   -0.5923    1.1638 O.2       0 UNK        -0.5197 
      4 N          30.2793   -1.0306   -1.0434 N.am      1 UNK        -0.4892 
      5 CA         29.2795   -2.0949   -1.2338 C.3       1 UNK         0.0835 
      6 C6         29.4373   -3.2618   -0.2108 C.3       12 UNK        -0.0855 
      7 S7         28.6985   -4.8492   -0.7403 S.3       12 UNK        -0.2931 
      8 C8         30.1371   -5.7495   -1.3899 C.3       12 UNK         0.0378 
      9 C9         30.5843   -5.1837   -2.7275 C.ar      12 UNK        -0.0802 
     10 C10        31.6611   -4.2956   -2.7911 C.ar      12 UNK        -0.0944 
     11 C11        32.0889   -3.7761   -4.0155 C.ar      12 UNK        -0.0787 
     12 C12        31.4377   -4.1853   -5.1872 C.ar      12 UNK        -0.0862 
     13 C13        30.3383   -5.0469   -5.1368 C.ar      12 UNK        -0.0733 
     14 C14        29.9190   -5.5481   -3.9017 C.ar      12 UNK        -0.0832 
     15 C15        29.6181   -5.4515   -6.4180 C.3       12 UNK         0.0240 
     16 S16        29.1577   -4.0229   -7.4546 S.3       12 UNK        -0.2522 
     17 C17        27.8545   -3.2376   -6.4502 C.3       12 UNK        -0.0967 
     18 CA         27.1906   -2.0609   -7.2114 C.3       5 UNK         0.0660 
     19 N          25.7744   -1.9020   -6.8656 N.am      5 UNK        -0.4015 
     20 C          24.8881   -1.2315   -7.6155 C.2       4 UNK         0.4946 
     21 O          25.1708   -0.6727   -8.6747 O.2       4 UNK        -0.5353 
     22 CA         23.4513   -1.1362   -7.0769 C.3       4 UNK         0.0277 
     23 CB         22.7180   -2.4796   -7.2226 C.3       4 UNK        -0.1981 
     24 N          23.3993   -0.6886   -5.6841 N.am      4 UNK        -0.4209 
     25 C          23.8015    0.5195   -5.2650 C.2       3 UNK         0.4942 
     26 O          24.2259    1.3988   -6.0131 O.2       3 UNK        -0.5208 
     27 CA         23.7541    0.7872   -3.7513 C.3       3 UNK         0.0250 
     28 CB         22.3598    1.2901   -3.3434 C.3       3 UNK        -0.1990 
     29 N          24.1336   -0.3448   -2.8958 N.am      3 UNK        -0.4232 
     30 C          25.2381   -1.0970   -3.0101 C.2       2 UNK         0.4993 
     31 O          26.0243   -1.0440   -3.9592 O.2       2 UNK        -0.5286 
     32 CA         25.4767   -2.1181   -1.8879 C.3       2 UNK         0.0209 
     33 CB         24.7421   -3.4321   -2.2005 C.3       2 UNK        -0.1931 
     34 N          26.8986   -2.4093   -1.6979 N.am      2 UNK        -0.4546 
     35 C          27.8356   -1.5388   -1.2995 C.2       1 UNK         0.5154 
     36 O          27.5883   -0.3656   -1.0052 O.2       1 UNK        -0.5181 
     37 C          27.9658   -0.7405   -7.0337 C.2       5 UNK         0.5014 
     38 O          28.8271   -0.4214   -7.8561 O.2       5 UNK        -0.5248 
     39 N          27.6128    0.0328   -5.9965 N.am      6 UNK        -0.4434 
     40 CA         28.1417    1.3724   -5.7450 C.3       6 UNK         0.0363 
     41 CB         27.6286    1.8989   -4.3978 C.3       6 UNK        -0.1936 
     42 C          27.8414    2.3647   -6.8798 C.2       6 UNK         0.5081 
     43 O          28.6968    3.1918   -7.1882 O.2       6 UNK        -0.5248 
     44 N          26.6616    2.2479   -7.5027 N.am      7 UNK        -0.4718 
     45 CA         26.2936    2.9967   -8.7020 C.3       7 UNK         0.0273 
     46 CB         24.7636    3.0141   -8.8547 C.3       7 UNK        -0.1935 
     47 C          26.9657    2.4322   -9.9643 C.2       7 UNK         0.5018 
     48 O          27.5962    3.1925  -10.6994 O.2       7 UNK        -0.5186 
     49 N          26.8010    1.1235  -10.2088 N.am      8 UNK        -0.4240 
     50 CA         27.1994    0.4634  -11.4558 C.3       8 UNK         0.0235 
     51 CB         26.5459   -0.9256  -11.5406 C.3       8 UNK        -0.2000 
     52 C          28.7169    0.3474  -11.6614 C.2       8 UNK         0.4941 
     53 O          29.1853    0.5752  -12.7778 O.2       8 UNK        -0.5273 
     54 N          29.4510   -0.0253  -10.6057 N.am      9 UNK        -0.4262 
     55 CA         30.8887   -0.3084  -10.6569 C.3       9 UNK         0.0264 
     56 CB         31.1358   -1.7000  -10.0448 C.3       9 UNK        -0.1955 
     57 C          31.7324    0.7644   -9.9482 C.2       9 UNK         0.5031 
     58 O          32.9488    0.5922   -9.8581 O.2       9 UNK        -0.5390 
     59 N          31.0910    1.8314   -9.4419 N.am      10 UNK        -0.4204 
     60 CA         31.6758    2.9164   -8.6359 C.3       10 UNK         0.0237 
     61 CB         32.6993    3.7314   -9.4566 C.3       10 UNK        -0.1985 
     62 C          32.2474    2.4299   -7.2849 C.2       10 UNK         0.4970 
     63 O          33.1406    3.0717   -6.7302 O.2       10 UNK        -0.4914 
     64 N          31.7295    1.3008   -6.7857 N.am      11 UNK        -0.4285 
     65 CA         32.2243    0.5597   -5.6157 C.3       11 UNK         0.1007 
     66 C          31.6897    1.0669   -4.2420 C.2       11 UNK         0.5703 
     67 N          31.2529    2.3145   -4.1257 N.am      11 UNK        -0.7361 
     68 O          31.6551    0.3198   -3.2669 O.2       11 UNK        -0.4986 
     69 C69        32.0274   -0.9693   -5.8301 C.3       12 UNK        -0.0947 
     70 S70        33.5719   -1.9109   -5.5842 S.3       12 UNK        -0.2240 
     71 C71        33.2496   -2.7782   -4.0099 C.3       12 UNK         0.0194 
     72 H72        31.1222    1.6777   -0.3239 H         1 UNK         0.0906 
     73 H73        32.0401    0.9159    0.9791 H         1 UNK         0.0906 
     74 H74        32.3775    0.4884   -0.6953 H         1 UNK         0.0906 
     75 H75        30.7452   -0.7177   -1.8929 H         1 UNK         0.3140 
     76 H76        29.4889   -2.4886   -2.2297 H         1 UNK         0.1085 
     77 H77        30.4946   -3.4320   -0.0032 H         1 UNK         0.0836 
     78 H78        28.9958   -2.9914    0.7500 H         1 UNK         0.0836 
     79 H79        30.9505   -5.7269   -0.6627 H         1 UNK         0.0731 
     80 H80        29.8695   -6.8004   -1.5109 H         1 UNK         0.0731 
     81 H81        32.1646   -3.9995   -1.8807 H         1 UNK         0.1312 
     82 H82        31.7597   -3.8203   -6.1514 H         1 UNK         0.1406 
     83 H83        29.0771   -6.2255   -3.8500 H         1 UNK         0.1631 
     84 H84        28.7220   -6.0339   -6.1985 H         1 UNK         0.0717 
     85 H85        30.2758   -6.1030   -6.9947 H         1 UNK         0.0717 
     86 H86        27.1153   -4.0091   -6.2285 H         1 UNK         0.0934 
     87 H87        28.2609   -2.9256   -5.4853 H         1 UNK         0.0934 
     88 H88        27.2138   -2.2934   -8.2788 H         1 UNK         0.0739 
     89 H89        25.4859   -2.2460   -5.9607 H         1 UNK         0.3093 
     90 H90        22.9239   -0.3961   -7.6830 H         1 UNK         0.0818 
     91 H91        21.6691   -2.3905   -6.9390 H         1 UNK         0.0819 
     92 H92        22.7427   -2.8260   -8.2569 H         1 UNK         0.0819 
     93 H93        23.1666   -3.2601   -6.6068 H         1 UNK         0.0819 
     94 H94        23.0657   -1.3480   -4.9965 H         1 UNK         0.3041 
     95 H95        24.4664    1.5869   -3.5446 H         1 UNK         0.0784 
     96 H96        22.0592    2.1447   -3.9517 H         1 UNK         0.0793 
     97 H97        21.5989    0.5185   -3.4672 H         1 UNK         0.0793 
     98 H98        22.3425    1.6161   -2.3032 H         1 UNK         0.0793 
     99 H99        23.5392   -0.4999   -2.0940 H         1 UNK         0.3024 
    100 H100       25.0948   -1.7054   -0.9515 H         1 UNK         0.1171 
    101 H101       23.6697   -3.2678   -2.3140 H         1 UNK         0.0786 
    102 H102       24.8722   -4.1595   -1.3987 H         1 UNK         0.0786 
    103 H103       25.1027   -3.8853   -3.1251 H         1 UNK         0.0786 
    104 H104       27.1936   -3.3567   -1.8929 H         1 UNK         0.2977 
    105 H105       26.9302   -0.3234   -5.3269 H         1 UNK         0.3127 
    106 H106       29.2224    1.2752   -5.6786 H         1 UNK         0.0770 
    107 H107       26.5497    2.0444   -4.4120 H         1 UNK         0.0814 
    108 H108       28.0845    2.8602   -4.1582 H         1 UNK         0.0814 
    109 H109       27.8677    1.2134   -3.5839 H         1 UNK         0.0814 
    110 H110       25.9752    1.5942   -7.1408 H         1 UNK         0.2983 
    111 H111       26.6276    4.0300   -8.5825 H         1 UNK         0.0947 
    112 H112       24.4651    3.5618   -9.7495 H         1 UNK         0.0806 
    113 H113       24.2890    3.5011   -8.0026 H         1 UNK         0.0806 
    114 H114       24.3500    2.0078   -8.9322 H         1 UNK         0.0806 
    115 H115       26.2566    0.5625   -9.5554 H         1 UNK         0.3000 
    116 H116       26.8075    1.0633  -12.2802 H         1 UNK         0.0850 
    117 H117       26.8017   -1.4230  -12.4771 H         1 UNK         0.0810 
    118 H118       25.4588   -0.8553  -11.4979 H         1 UNK         0.0810 
    119 H119       26.8706   -1.5746  -10.7264 H         1 UNK         0.0810 
    120 H120       29.0019   -0.1776   -9.7036 H         1 UNK         0.3040 
    121 H121       31.2356   -0.3383  -11.6917 H         1 UNK         0.0766 
    122 H122       32.1905   -1.9732  -10.0942 H         1 UNK         0.0812 
    123 H123       30.5786   -2.4706  -10.5775 H         1 UNK         0.0812 
    124 H124       30.8380   -1.7417   -8.9974 H         1 UNK         0.0812 
    125 H125       30.0902    1.8791   -9.5782 H         1 UNK         0.3205 
    126 H126       30.8591    3.5952   -8.3952 H         1 UNK         0.0754 
    127 H127       33.0062    4.6287   -8.9178 H         1 UNK         0.0769 
    128 H128       32.2767    4.0561  -10.4075 H         1 UNK         0.0769 
    129 H129       33.6021    3.1579   -9.6683 H         1 UNK         0.0769 
    130 H130       30.9690    0.8656   -7.2886 H         1 UNK         0.2981 
    131 H131       33.2969    0.7546   -5.5640 H         1 UNK         0.0541 
    132 H132       31.3115    2.9488   -4.9062 H         1 UNK         0.3459 
    133 H133       30.9116    2.6355   -3.2347 H         1 UNK         0.3459 
    134 H134       31.7116   -1.1828   -6.8521 H         1 UNK         0.0612 
    135 H135       31.2249   -1.3697   -5.2083 H         1 UNK         0.0612 
    136 H136       34.1584   -3.3095   -3.7250 H         1 UNK         0.0624 
    137 H137       33.0753   -2.0280   -3.2373 H         1 UNK         0.0624 
@<TRIPOS>BOND
     1    1    2 1    
     2    1   72 1    
     3    1   73 1    
     4    1   74 1    
     5    2    3 2    
     6    2    4 am   BACKBONE|DICT|INTERRES
     7    4    5 1    
     8    4   75 1    
     9    5    6 1    
    10    5   35 1    
    11    5   76 1    
    12    6    7 1    
    13    6   77 1    
    14    6   78 1    
    15    7    8 1    
    16    8    9 1    
    17    8   79 1    
    18    8   80 1    
    19    9   10 ar   
    20    9   14 ar   
    21   10   11 ar   
    22   10   81 1    
    23   11   12 ar   
    24   11   71 1    
    25   12   13 ar   
    26   12   82 1    
    27   13   14 ar   
    28   13   15 1    
    29   14   83 1    
    30   15   16 1    
    31   15   84 1    
    32   15   85 1    
    33   16   17 1    
    34   17   18 1    
    35   17   86 1    
    36   17   87 1    
    37   18   19 1    
    38   18   37 1    
    39   18   88 1    
    40   19   20 am   BACKBONE|DICT|INTERRES
    41   19   89 1    
    42   20   21 2    
    43   20   22 1    
    44   22   23 1    
    45   22   24 1    
    46   22   90 1    
    47   23   91 1    
    48   23   92 1    
    49   23   93 1    
    50   24   25 am   BACKBONE|DICT|INTERRES
    51   24   94 1    
    52   25   26 2    
    53   25   27 1    
    54   27   28 1    
    55   27   29 1    
    56   27   95 1    
    57   28   96 1    
    58   28   97 1    
    59   28   98 1    
    60   29   30 am   BACKBONE|DICT|INTERRES
    61   29   99 1    
    62   30   31 2    
    63   30   32 1    
    64   32   33 1    
    65   32   34 1    
    66   32  100 1    
    67   33  101 1    
    68   33  102 1    
    69   33  103 1    
    70   34   35 am   BACKBONE|DICT|INTERRES
    71   34  104 1    
    72   35   36 2    
    73   37   38 2    
    74   37   39 am   BACKBONE|DICT|INTERRES
    75   39   40 1    
    76   39  105 1    
    77   40   41 1    
    78   40   42 1    
    79   40  106 1    
    80   41  107 1    
    81   41  108 1    
    82   41  109 1    
    83   42   43 2    
    84   42   44 am   BACKBONE|DICT|INTERRES
    85   44   45 1    
    86   44  110 1    
    87   45   46 1    
    88   45   47 1    
    89   45  111 1    
    90   46  112 1    
    91   46  113 1    
    92   46  114 1    
    93   47   48 2    
    94   47   49 am   BACKBONE|DICT|INTERRES
    95   49   50 1    
    96   49  115 1    
    97   50   51 1    
    98   50   52 1    
    99   50  116 1    
   100   51  117 1    
   101   51  118 1    
   102   51  119 1    
   103   52   53 2    
   104   52   54 am   BACKBONE|DICT|INTERRES
   105   54   55 1    
   106   54  120 1    
   107   55   56 1    
   108   55   57 1    
   109   55  121 1    
   110   56  122 1    
   111   56  123 1    
   112   56  124 1    
   113   57   58 2    
   114   57   59 am   BACKBONE|DICT|INTERRES
   115   59   60 1    
   116   59  125 1    
   117   60   61 1    
   118   60   62 1    
   119   60  126 1    
   120   61  127 1    
   121   61  128 1    
   122   61  129 1    
   123   62   63 2    
   124   62   64 am   BACKBONE|DICT|INTERRES
   125   64   65 1    
   126   64  130 1    
   127   65   66 1    
   128   65   69 1    
   129   65  131 1    
   130   66   67 am   BACKBONE|DICT|INTERRES
   131   66   68 2    
   132   67  132 1    
   133   67  133 1    
   134   69   70 1    
   135   69  134 1    
   136   69  135 1    
   137   70   71 1    
   138   71  136 1    
   139   71  137 1    
@<TRIPOS>SUBSTRUCTURE
     1 UNK         1 GROUP             0       ****    0 ROOT    
