@<TRIPOS>MOLECULE
3R137
137   139    1
SMALL
USER_CHARGES


@<TRIPOS>ATOM
      1 CA         27.9102   -8.0699   -0.8801 C.3       0 UNK        -0.2020 
      2 C          26.9887   -6.9266   -0.4829 C.2       0 UNK         0.4855 
      3 O          26.0699   -7.1278    0.3114 O.2       0 UNK        -0.5197 
      4 N          27.2223   -5.7282   -1.0342 N.am      1 UNK        -0.4892 
      5 CA         26.4525   -4.5072   -0.7444 C.3       1 UNK         0.0835 
      6 C6         27.2741   -3.2215   -1.0246 C.3       12 UNK        -0.0855 
      7 S7         28.7932   -3.1646   -0.0110 S.3       12 UNK        -0.2931 
      8 C8         30.1028   -3.0423   -1.2810 C.3       12 UNK         0.0378 
      9 C9         30.4634   -1.6268   -1.7439 C.ar      12 UNK        -0.0802 
     10 C10        31.5038   -1.4849   -2.6679 C.ar      12 UNK        -0.0944 
     11 C11        31.9185   -0.2216   -3.1002 C.ar      12 UNK        -0.0787 
     12 C12        31.2780    0.9178   -2.6068 C.ar      12 UNK        -0.0862 
     13 C13        30.2262    0.7966   -1.6924 C.ar      12 UNK        -0.0733 
     14 C14        29.8251   -0.4732   -1.2659 C.ar      12 UNK        -0.0832 
     15 C15        29.5237    2.0347   -1.1515 C.3       12 UNK         0.0240 
     16 S16        27.8941    2.2869   -1.9278 S.3       12 UNK        -0.2522 
     17 C17        28.3676    2.6330   -3.6550 C.3       12 UNK        -0.0967 
     18 CA         28.1899    1.3838   -4.5688 C.3       5 UNK         0.0660 
     19 N          26.8016    0.9159   -4.6232 N.am      5 UNK        -0.4015 
     20 C          25.7575    1.5336   -5.1892 C.2       4 UNK         0.4946 
     21 O          25.8356    2.6166   -5.7739 O.2       4 UNK        -0.5353 
     22 CA         24.3976    0.8090   -5.0826 C.3       4 UNK         0.0277 
     23 CB         23.2632    1.5826   -5.7817 C.3       4 UNK        -0.1981 
     24 N          24.4320   -0.5596   -5.6122 N.am      4 UNK        -0.4209 
     25 C          25.0078   -1.6133   -5.0201 C.2       3 UNK         0.4942 
     26 O          25.6049   -1.5528   -3.9417 O.2       3 UNK        -0.5208 
     27 CA         24.9620   -2.9435   -5.7844 C.3       3 UNK         0.0250 
     28 CB         26.2754   -3.1658   -6.5526 C.3       3 UNK        -0.1990 
     29 N          24.7712   -4.0466   -4.8467 N.am      3 UNK        -0.4232 
     30 C          23.5933   -4.4055   -4.3199 C.2       2 UNK         0.4993 
     31 O          22.5114   -3.9265   -4.6622 O.2       2 UNK        -0.5286 
     32 CA         23.6331   -5.4762   -3.2171 C.3       2 UNK         0.0209 
     33 CB         23.5104   -6.8841   -3.8228 C.3       2 UNK        -0.1931 
     34 N          24.8527   -5.3999   -2.4066 N.am      2 UNK        -0.4546 
     35 C          25.0892   -4.4659   -1.4723 C.2       1 UNK         0.5154 
     36 O          24.2721   -3.5954   -1.1681 O.2       1 UNK        -0.5181 
     37 C          28.7932    1.5459   -5.9836 C.2       5 UNK         0.5014 
     38 O          28.3684    0.8570   -6.9169 O.2       5 UNK        -0.5248 
     39 N          29.7818    2.4405   -6.1277 N.am      6 UNK        -0.4434 
     40 CA         30.5284    2.7084   -7.3596 C.3       6 UNK         0.0363 
     41 CB         31.6073    3.7624   -7.0738 C.3       6 UNK        -0.1936 
     42 C          29.6612    3.1434   -8.5514 C.2       6 UNK         0.5081 
     43 O          30.0303    2.8609   -9.6893 O.2       6 UNK        -0.5248 
     44 N          28.5090    3.7714   -8.2795 N.am      7 UNK        -0.4718 
     45 CA         27.5150    4.1593   -9.2844 C.3       7 UNK         0.0273 
     46 CB         26.4295    5.0169   -8.6144 C.3       7 UNK        -0.1935 
     47 C          26.8788    2.9654  -10.0224 C.2       7 UNK         0.5018 
     48 O          26.4157    3.1430  -11.1500 O.2       7 UNK        -0.5186 
     49 N          26.8720    1.7860   -9.3865 N.am      8 UNK        -0.4240 
     50 CA         26.3728    0.5354   -9.9543 C.3       8 UNK         0.0235 
     51 CB         25.3596   -0.0841   -8.9801 C.3       8 UNK        -0.2000 
     52 C          27.5162   -0.4486  -10.2403 C.2       8 UNK         0.4941 
     53 O          27.5396   -1.0452  -11.3171 O.2       8 UNK        -0.5273 
     54 N          28.4282   -0.6240   -9.2739 N.am      9 UNK        -0.4262 
     55 CA         29.4791   -1.6439   -9.3092 C.3       9 UNK         0.0264 
     56 CB         29.8548   -2.0146   -7.8650 C.3       9 UNK        -0.1955 
     57 C          30.7378   -1.2406  -10.0955 C.2       9 UNK         0.5031 
     58 O          31.5262   -2.1271  -10.4263 O.2       9 UNK        -0.5390 
     59 N          30.9381    0.0644  -10.3441 N.am      10 UNK        -0.4204 
     60 CA         32.1256    0.6720  -10.9711 C.3       10 UNK         0.0237 
     61 CB         32.2837    0.2058  -12.4349 C.3       10 UNK        -0.1985 
     62 C          33.4277    0.5126  -10.1531 C.2       10 UNK         0.4970 
     63 O          34.5158    0.6796  -10.7075 O.2       10 UNK        -0.4914 
     64 N          33.3012    0.1992   -8.8575 N.am      11 UNK        -0.4285 
     65 CA         34.4012    0.0585   -7.8956 C.3       11 UNK         0.1007 
     66 C          35.0641    1.4070   -7.4928 C.2       11 UNK         0.5703 
     67 N          36.2075    1.3569   -6.8220 N.am      11 UNK        -0.7361 
     68 O          34.5603    2.4929   -7.7712 O.2       11 UNK        -0.4986 
     69 C69        33.9679   -0.7984   -6.6749 C.3       12 UNK        -0.0947 
     70 S70        32.4826   -0.1884   -5.8000 S.3       12 UNK        -0.2240 
     71 C71        33.0733   -0.0993   -4.0834 C.3       12 UNK         0.0194 
     72 H72        28.6750   -7.7517   -1.5883 H         1 UNK         0.0906 
     73 H73        28.4108   -8.4704    0.0010 H         1 UNK         0.0906 
     74 H74        27.3352   -8.8734   -1.3397 H         1 UNK         0.0906 
     75 H75        28.0036   -5.6138   -1.6641 H         1 UNK         0.3140 
     76 H76        26.2134   -4.5108    0.3219 H         1 UNK         0.1085 
     77 H77        27.5192   -3.1398   -2.0854 H         1 UNK         0.0836 
     78 H78        26.6882   -2.3313   -0.7861 H         1 UNK         0.0836 
     79 H79        29.8323   -3.6502   -2.1454 H         1 UNK         0.0731 
     80 H80        31.0021   -3.4971   -0.8628 H         1 UNK         0.0731 
     81 H81        32.0061   -2.3653   -3.0460 H         1 UNK         0.1312 
     82 H82        31.6006    1.8964   -2.9347 H         1 UNK         0.1406 
     83 H83        29.0146   -0.5446   -0.5550 H         1 UNK         0.1631 
     84 H84        30.1381    2.9252   -1.2934 H         1 UNK         0.0717 
     85 H85        29.3868    1.9311   -0.0740 H         1 UNK         0.0717 
     86 H86        27.7621    3.4652   -4.0184 H         1 UNK         0.0934 
     87 H87        29.3959    2.9937   -3.6443 H         1 UNK         0.0934 
     88 H88        28.7527    0.5614   -4.1259 H         1 UNK         0.0739 
     89 H89        26.6207    0.0079   -4.2026 H         1 UNK         0.3093 
     90 H90        24.1535    0.7559   -4.0192 H         1 UNK         0.0818 
     91 H91        22.3016    1.0865   -5.6493 H         1 UNK         0.0819 
     92 H92        23.1647    2.5878   -5.3694 H         1 UNK         0.0819 
     93 H93        23.4448    1.6875   -6.8519 H         1 UNK         0.0819 
     94 H94        23.9822   -0.6976   -6.5054 H         1 UNK         0.3041 
     95 H95        24.1339   -2.9284   -6.4967 H         1 UNK         0.0784 
     96 H96        26.4483   -2.3729   -7.2800 H         1 UNK         0.0793 
     97 H97        27.1355   -3.1841   -5.8817 H         1 UNK         0.0793 
     98 H98        26.2593   -4.1073   -7.1021 H         1 UNK         0.0793 
     99 H99        25.6073   -4.4631   -4.4662 H         1 UNK         0.3024 
    100 H100       22.7725   -5.3070   -2.5653 H         1 UNK         0.1171 
    101 H101       24.3484   -7.1180   -4.4807 H         1 UNK         0.0786 
    102 H102       22.5974   -6.9755   -4.4130 H         1 UNK         0.0786 
    103 H103       23.4695   -7.6476   -3.0457 H         1 UNK         0.0786 
    104 H104       25.5639   -6.0982   -2.5685 H         1 UNK         0.2977 
    105 H105       30.0730    2.9660   -5.3176 H         1 UNK         0.3127 
    106 H106       31.0250    1.7803   -7.6463 H         1 UNK         0.0770 
    107 H107       31.1752    4.7068   -6.7408 H         1 UNK         0.0814 
    108 H108       32.1947    3.9706   -7.9695 H         1 UNK         0.0814 
    109 H109       32.3042    3.4192   -6.3087 H         1 UNK         0.0814 
    110 H110       28.2687    3.9391   -7.3129 H         1 UNK         0.2983 
    111 H111       28.0219    4.7695  -10.0353 H         1 UNK         0.0947 
    112 H112       25.6886    5.3483   -9.3434 H         1 UNK         0.0806 
    113 H113       26.8539    5.9107   -8.1570 H         1 UNK         0.0806 
    114 H114       25.8983    4.4615   -7.8401 H         1 UNK         0.0806 
    115 H115       27.2901    1.7342   -8.4637 H         1 UNK         0.3000 
    116 H116       25.8579    0.7201  -10.8996 H         1 UNK         0.0850 
    117 H117       25.7969   -0.2176   -7.9914 H         1 UNK         0.0810 
    118 H118       24.4802    0.5510   -8.8743 H         1 UNK         0.0810 
    119 H119       25.0182   -1.0595   -9.3300 H         1 UNK         0.0810 
    120 H120       28.3462   -0.0933   -8.4064 H         1 UNK         0.3040 
    121 H121       29.0795   -2.5406   -9.7881 H         1 UNK         0.0766 
    122 H122       29.0074   -2.4435   -7.3329 H         1 UNK         0.0812 
    123 H123       30.1916   -1.1448   -7.3028 H         1 UNK         0.0812 
    124 H124       30.6579   -2.7527   -7.8390 H         1 UNK         0.0812 
    125 H125       30.2326    0.7284  -10.0455 H         1 UNK         0.3205 
    126 H126       31.9366    1.7449  -11.0011 H         1 UNK         0.0754 
    127 H127       31.3572    0.3362  -12.9942 H         1 UNK         0.0769 
    128 H128       32.5706   -0.8441  -12.4996 H         1 UNK         0.0769 
    129 H129       33.0534    0.7828  -12.9488 H         1 UNK         0.0769 
    130 H130       32.3761    0.0929   -8.4733 H         1 UNK         0.2981 
    131 H131       35.1834   -0.5035   -8.4096 H         1 UNK         0.0541 
    132 H132       36.6400    0.4772   -6.5881 H         1 UNK         0.3459 
    133 H133       36.6508    2.2205   -6.5508 H         1 UNK         0.3459 
    134 H134       34.7970   -0.9114   -5.9751 H         1 UNK         0.0612 
    135 H135       33.7424   -1.8106   -7.0143 H         1 UNK         0.0612 
    136 H136       33.7898   -0.9000   -3.8941 H         1 UNK         0.0624 
    137 H137       33.6107    0.8387   -3.9358 H         1 UNK         0.0624 
@<TRIPOS>BOND
     1    1    2 1    
     2    1   72 1    
     3    1   73 1    
     4    1   74 1    
     5    2    3 2    
     6    2    4 am   BACKBONE|DICT|INTERRES
     7    4    5 1    
     8    4   75 1    
     9    5    6 1    
    10    5   35 1    
    11    5   76 1    
    12    6    7 1    
    13    6   77 1    
    14    6   78 1    
    15    7    8 1    
    16    8    9 1    
    17    8   79 1    
    18    8   80 1    
    19    9   10 ar   
    20    9   14 ar   
    21   10   11 ar   
    22   10   81 1    
    23   11   12 ar   
    24   11   71 1    
    25   12   13 ar   
    26   12   82 1    
    27   13   14 ar   
    28   13   15 1    
    29   14   83 1    
    30   15   16 1    
    31   15   84 1    
    32   15   85 1    
    33   16   17 1    
    34   17   18 1    
    35   17   86 1    
    36   17   87 1    
    37   18   19 1    
    38   18   37 1    
    39   18   88 1    
    40   19   20 am   BACKBONE|DICT|INTERRES
    41   19   89 1    
    42   20   21 2    
    43   20   22 1    
    44   22   23 1    
    45   22   24 1    
    46   22   90 1    
    47   23   91 1    
    48   23   92 1    
    49   23   93 1    
    50   24   25 am   BACKBONE|DICT|INTERRES
    51   24   94 1    
    52   25   26 2    
    53   25   27 1    
    54   27   28 1    
    55   27   29 1    
    56   27   95 1    
    57   28   96 1    
    58   28   97 1    
    59   28   98 1    
    60   29   30 am   BACKBONE|DICT|INTERRES
    61   29   99 1    
    62   30   31 2    
    63   30   32 1    
    64   32   33 1    
    65   32   34 1    
    66   32  100 1    
    67   33  101 1    
    68   33  102 1    
    69   33  103 1    
    70   34   35 am   BACKBONE|DICT|INTERRES
    71   34  104 1    
    72   35   36 2    
    73   37   38 2    
    74   37   39 am   BACKBONE|DICT|INTERRES
    75   39   40 1    
    76   39  105 1    
    77   40   41 1    
    78   40   42 1    
    79   40  106 1    
    80   41  107 1    
    81   41  108 1    
    82   41  109 1    
    83   42   43 2    
    84   42   44 am   BACKBONE|DICT|INTERRES
    85   44   45 1    
    86   44  110 1    
    87   45   46 1    
    88   45   47 1    
    89   45  111 1    
    90   46  112 1    
    91   46  113 1    
    92   46  114 1    
    93   47   48 2    
    94   47   49 am   BACKBONE|DICT|INTERRES
    95   49   50 1    
    96   49  115 1    
    97   50   51 1    
    98   50   52 1    
    99   50  116 1    
   100   51  117 1    
   101   51  118 1    
   102   51  119 1    
   103   52   53 2    
   104   52   54 am   BACKBONE|DICT|INTERRES
   105   54   55 1    
   106   54  120 1    
   107   55   56 1    
   108   55   57 1    
   109   55  121 1    
   110   56  122 1    
   111   56  123 1    
   112   56  124 1    
   113   57   58 2    
   114   57   59 am   BACKBONE|DICT|INTERRES
   115   59   60 1    
   116   59  125 1    
   117   60   61 1    
   118   60   62 1    
   119   60  126 1    
   120   61  127 1    
   121   61  128 1    
   122   61  129 1    
   123   62   63 2    
   124   62   64 am   BACKBONE|DICT|INTERRES
   125   64   65 1    
   126   64  130 1    
   127   65   66 1    
   128   65   69 1    
   129   65  131 1    
   130   66   67 am   BACKBONE|DICT|INTERRES
   131   66   68 2    
   132   67  132 1    
   133   67  133 1    
   134   69   70 1    
   135   69  134 1    
   136   69  135 1    
   137   70   71 1    
   138   71  136 1    
   139   71  137 1    
@<TRIPOS>SUBSTRUCTURE
     1 UNK         1 GROUP             0       ****    0 ROOT    
