@<TRIPOS>MOLECULE
3R137
137   139    1
SMALL
USER_CHARGES


@<TRIPOS>ATOM
      1 CA         25.5305   -6.7262   -1.5352 C.3       0 UNK        -0.2020 
      2 C          26.6054   -6.0490   -2.3814 C.2       0 UNK         0.4855 
      3 O          26.7676   -6.4092   -3.5447 O.2       0 UNK        -0.5197 
      4 N          27.3644   -5.0782   -1.8524 N.am      1 UNK        -0.4892 
      5 CA         27.2804   -4.5445   -0.4835 C.3       1 UNK         0.0835 
      6 C6         28.6258   -3.9447   -0.0040 C.3       12 UNK        -0.0855 
      7 S7         29.9237   -5.2273    0.0996 S.3       12 UNK        -0.2931 
      8 C8         31.4414   -4.2908   -0.3048 C.3       12 UNK         0.0378 
      9 C9         31.4906   -3.6897   -1.7106 C.ar      12 UNK        -0.0802 
     10 C10        32.3005   -2.5693   -1.9347 C.ar      12 UNK        -0.0944 
     11 C11        32.3650   -1.9783   -3.1996 C.ar      12 UNK        -0.0787 
     12 C12        31.6195   -2.5188   -4.2463 C.ar      12 UNK        -0.0862 
     13 C13        30.7817   -3.6152   -4.0363 C.ar      12 UNK        -0.0733 
     14 C14        30.7490   -4.2187   -2.7768 C.ar      12 UNK        -0.0832 
     15 C15        29.8808   -4.1158   -5.1573 C.3       12 UNK         0.0240 
     16 S16        28.1882   -3.4459   -5.0058 S.3       12 UNK        -0.2522 
     17 C17        28.4470   -1.6512   -5.2174 C.3       12 UNK        -0.0967 
     18 CA         27.6686   -1.0618   -6.4147 C.3       5 UNK         0.0660 
     19 N          26.2177   -1.1187   -6.2158 N.am      5 UNK        -0.4015 
     20 C          25.3105   -0.8643   -7.1714 C.2       4 UNK         0.4946 
     21 O          25.6038   -0.5951   -8.3356 O.2       4 UNK        -0.5353 
     22 CA         23.8272   -0.8496   -6.7549 C.3       4 UNK         0.0277 
     23 CB         23.2284   -2.2614   -6.8531 C.3       4 UNK        -0.1981 
     24 N          23.6083   -0.3188   -5.4070 N.am      4 UNK        -0.4209 
     25 C          23.9845    0.8991   -4.9911 C.2       3 UNK         0.4942 
     26 O          24.4507    1.7564   -5.7407 O.2       3 UNK        -0.5208 
     27 CA         23.8883    1.2029   -3.4840 C.3       3 UNK         0.0250 
     28 CB         22.6653    2.0888   -3.1984 C.3       3 UNK        -0.1990 
     29 N          23.8528    0.0288   -2.5993 N.am      3 UNK        -0.4232 
     30 C          24.7594   -0.9589   -2.5506 C.2       2 UNK         0.4993 
     31 O          25.7244   -1.0475   -3.3150 O.2       2 UNK        -0.5286 
     32 CA         24.5108   -2.0497   -1.5025 C.3       2 UNK         0.0209 
     33 CB         23.2562   -2.8764   -1.8448 C.3       2 UNK        -0.1931 
     34 N          25.6624   -2.9465   -1.4372 N.am      2 UNK        -0.4546 
     35 C          26.1271   -3.5310   -0.3263 C.2       1 UNK         0.5154 
     36 O          25.6540   -3.3319    0.7935 O.2       1 UNK        -0.5181 
     37 C          28.1517    0.3755   -6.6912 C.2       5 UNK         0.5014 
     38 O          29.0364    0.5643   -7.5281 O.2       5 UNK        -0.5248 
     39 N          27.5673    1.3589   -5.9915 N.am      6 UNK        -0.4434 
     40 CA         27.8559    2.7817   -6.1751 C.3       6 UNK         0.0363 
     41 CB         27.3164    3.5881   -4.9827 C.3       6 UNK        -0.1936 
     42 C          27.2911    3.3087   -7.5023 C.2       6 UNK         0.5081 
     43 O          27.9835    4.0523   -8.1956 O.2       6 UNK        -0.5248 
     44 N          26.0711    2.8778   -7.8553 N.am      7 UNK        -0.4718 
     45 CA         25.4121    3.1791   -9.1298 C.3       7 UNK         0.0273 
     46 CB         23.9635    2.6676   -9.0940 C.3       7 UNK        -0.1935 
     47 C          26.1647    2.6045  -10.3429 C.2       7 UNK         0.5018 
     48 O          26.2889    3.2910  -11.3577 O.2       7 UNK        -0.5186 
     49 N          26.6812    1.3749  -10.2053 N.am      8 UNK        -0.4240 
     50 CA         27.5393    0.7161  -11.1942 C.3       8 UNK         0.0235 
     51 CB         27.5860   -0.7906  -10.8895 C.3       8 UNK        -0.2000 
     52 C          28.9708    1.2830  -11.2499 C.2       8 UNK         0.4941 
     53 O          29.6698    1.0200  -12.2292 O.2       8 UNK        -0.5273 
     54 N          29.3863    2.0135  -10.2022 N.am      9 UNK        -0.4262 
     55 CA         30.7386    2.5225   -9.9415 C.3       9 UNK         0.0264 
     56 CB         31.1310    3.6085  -10.9653 C.3       9 UNK        -0.1955 
     57 C          31.7655    1.3779   -9.8387 C.2       9 UNK         0.5031 
     58 O          32.8151    1.4195  -10.4841 O.2       9 UNK        -0.5390 
     59 N          31.4164    0.3538   -9.0472 N.am      10 UNK        -0.4204 
     60 CA         32.1698   -0.8948   -8.9051 C.3       10 UNK         0.0237 
     61 CB         31.2780   -1.9408   -8.2195 C.3       10 UNK        -0.1985 
     62 C          33.5220   -0.7501   -8.1812 C.2       10 UNK         0.4970 
     63 O          34.4062   -1.5748   -8.4171 O.2       10 UNK        -0.4914 
     64 N          33.6687    0.2844   -7.3444 N.am      11 UNK        -0.4285 
     65 CA         34.9398    0.7025   -6.7346 C.3       11 UNK         0.1007 
     66 C          35.2949    2.1306   -7.2193 C.2       11 UNK         0.5703 
     67 N          36.5725    2.4191   -7.4263 N.am      11 UNK        -0.7361 
     68 O          34.4268    2.9890   -7.3734 O.2       11 UNK        -0.4986 
     69 C69        34.9090    0.6505   -5.1834 C.3       12 UNK        -0.0947 
     70 S70        34.5994   -1.0269   -4.5340 S.3       12 UNK        -0.2240 
     71 C71        33.1780   -0.7169   -3.4418 C.3       12 UNK         0.0194 
     72 H72        24.8129   -6.0020   -1.1518 H         1 UNK         0.0906 
     73 H73        25.9763   -7.2628   -0.6983 H         1 UNK         0.0906 
     74 H74        24.9767   -7.4503   -2.1326 H         1 UNK         0.0906 
     75 H75        28.0499   -4.6358   -2.4473 H         1 UNK         0.3140 
     76 H76        27.0475   -5.3668    0.1956 H         1 UNK         0.1085 
     77 H77        28.5217   -3.5027    0.9891 H         1 UNK         0.0836 
     78 H78        28.9429   -3.1367   -0.6659 H         1 UNK         0.0836 
     79 H79        31.5594   -3.5018    0.4398 H         1 UNK         0.0731 
     80 H80        32.2976   -4.9561   -0.1870 H         1 UNK         0.0731 
     81 H81        32.8712   -2.1470   -1.1185 H         1 UNK         0.1312 
     82 H82        31.6751   -2.0547   -5.2191 H         1 UNK         0.1406 
     83 H83        30.1233   -5.0868   -2.6278 H         1 UNK         0.1631 
     84 H84        29.8321   -5.2055   -5.1312 H         1 UNK         0.0717 
     85 H85        30.2907   -3.8521   -6.1330 H         1 UNK         0.0717 
     86 H86        28.1717   -1.1525   -4.2865 H         1 UNK         0.0934 
     87 H87        29.5075   -1.4545   -5.3475 H         1 UNK         0.0934 
     88 H88        27.9059   -1.6535   -7.3017 H         1 UNK         0.0739 
     89 H89        25.9075   -1.2912   -5.2635 H         1 UNK         0.3093 
     90 H90        23.2946   -0.2014   -7.4533 H         1 UNK         0.0818 
     91 H91        22.1579   -2.2547   -6.6473 H         1 UNK         0.0819 
     92 H92        23.3610   -2.6711   -7.8556 H         1 UNK         0.0819 
     93 H93        23.7021   -2.9520   -6.1538 H         1 UNK         0.0819 
     94 H94        23.2307   -0.9560   -4.7218 H         1 UNK         0.3041 
     95 H95        24.7849    1.7689   -3.2235 H         1 UNK         0.0784 
     96 H96        22.6775    2.9851   -3.8207 H         1 UNK         0.0793 
     97 H97        21.7307    1.5643   -3.4014 H         1 UNK         0.0793 
     98 H98        22.6474    2.4207   -2.1601 H         1 UNK         0.0793 
     99 H99        23.0853    0.0003   -1.9430 H         1 UNK         0.3024 
    100 H100       24.3720   -1.5533   -0.5390 H         1 UNK         0.1171 
    101 H101       22.3612   -2.2542   -1.8779 H         1 UNK         0.0786 
    102 H102       23.0777   -3.6495   -1.0970 H         1 UNK         0.0786 
    103 H103       23.3507   -3.3683   -2.8139 H         1 UNK         0.0786 
    104 H104       26.1448   -3.0917   -2.3153 H         1 UNK         0.2977 
    105 H105       26.8210    1.1239   -5.3529 H         1 UNK         0.3127 
    106 H106       28.9409    2.9065   -6.2023 H         1 UNK         0.0770 
    107 H107       26.2312    3.5247   -4.9018 H         1 UNK         0.0814 
    108 H108       27.5713    4.6438   -5.0837 H         1 UNK         0.0814 
    109 H109       27.7445    3.2409   -4.0423 H         1 UNK         0.0814 
    110 H110       25.5454    2.3175   -7.1878 H         1 UNK         0.2983 
    111 H111       25.3889    4.2655   -9.2402 H         1 UNK         0.0947 
    112 H112       23.4336    2.9332  -10.0097 H         1 UNK         0.0806 
    113 H113       23.4098    3.0998   -8.2602 H         1 UNK         0.0806 
    114 H114       23.9218    1.5827   -8.9964 H         1 UNK         0.0806 
    115 H115       26.4551    0.8391   -9.3710 H         1 UNK         0.3000 
    116 H116       27.0939    0.8535  -12.1818 H         1 UNK         0.0850 
    117 H117       28.1919   -1.3223  -11.6245 H         1 UNK         0.0810 
    118 H118       26.5891   -1.2312  -10.9122 H         1 UNK         0.0810 
    119 H119       28.0166   -0.9879   -9.9068 H         1 UNK         0.0810 
    120 H120       28.7249    2.1585   -9.4504 H         1 UNK         0.3040 
    121 H121       30.7035    2.9939   -8.9580 H         1 UNK         0.0766 
    122 H122       31.2267    3.2031  -11.9730 H         1 UNK         0.0812 
    123 H123       30.3920    4.4092  -10.9940 H         1 UNK         0.0812 
    124 H124       32.0891    4.0596  -10.7048 H         1 UNK         0.0812 
    125 H125       30.5316    0.4157   -8.5422 H         1 UNK         0.3205 
    126 H126       32.3928   -1.2577   -9.9108 H         1 UNK         0.0754 
    127 H127       31.8225   -2.8677   -8.0332 H         1 UNK         0.0769 
    128 H128       30.4156   -2.1893   -8.8384 H         1 UNK         0.0769 
    129 H129       30.9036   -1.5759   -7.2655 H         1 UNK         0.0769 
    130 H130       32.9109    0.9453   -7.2549 H         1 UNK         0.2981 
    131 H131       35.7415    0.0413   -7.0694 H         1 UNK         0.0541 
    132 H132       37.2936    1.7278   -7.2891 H         1 UNK         0.3459 
    133 H133       36.8209    3.3483   -7.7283 H         1 UNK         0.3459 
    134 H134       34.1639    1.3470   -4.7953 H         1 UNK         0.0612 
    135 H135       35.8669    0.9802   -4.7768 H         1 UNK         0.0612 
    136 H136       33.5349   -0.2916   -2.5027 H         1 UNK         0.0624 
    137 H137       32.5211    0.0290   -3.8917 H         1 UNK         0.0624 
@<TRIPOS>BOND
     1    1    2 1    
     2    1   72 1    
     3    1   73 1    
     4    1   74 1    
     5    2    3 2    
     6    2    4 am   BACKBONE|DICT|INTERRES
     7    4    5 1    
     8    4   75 1    
     9    5    6 1    
    10    5   35 1    
    11    5   76 1    
    12    6    7 1    
    13    6   77 1    
    14    6   78 1    
    15    7    8 1    
    16    8    9 1    
    17    8   79 1    
    18    8   80 1    
    19    9   10 ar   
    20    9   14 ar   
    21   10   11 ar   
    22   10   81 1    
    23   11   12 ar   
    24   11   71 1    
    25   12   13 ar   
    26   12   82 1    
    27   13   14 ar   
    28   13   15 1    
    29   14   83 1    
    30   15   16 1    
    31   15   84 1    
    32   15   85 1    
    33   16   17 1    
    34   17   18 1    
    35   17   86 1    
    36   17   87 1    
    37   18   19 1    
    38   18   37 1    
    39   18   88 1    
    40   19   20 am   BACKBONE|DICT|INTERRES
    41   19   89 1    
    42   20   21 2    
    43   20   22 1    
    44   22   23 1    
    45   22   24 1    
    46   22   90 1    
    47   23   91 1    
    48   23   92 1    
    49   23   93 1    
    50   24   25 am   BACKBONE|DICT|INTERRES
    51   24   94 1    
    52   25   26 2    
    53   25   27 1    
    54   27   28 1    
    55   27   29 1    
    56   27   95 1    
    57   28   96 1    
    58   28   97 1    
    59   28   98 1    
    60   29   30 am   BACKBONE|DICT|INTERRES
    61   29   99 1    
    62   30   31 2    
    63   30   32 1    
    64   32   33 1    
    65   32   34 1    
    66   32  100 1    
    67   33  101 1    
    68   33  102 1    
    69   33  103 1    
    70   34   35 am   BACKBONE|DICT|INTERRES
    71   34  104 1    
    72   35   36 2    
    73   37   38 2    
    74   37   39 am   BACKBONE|DICT|INTERRES
    75   39   40 1    
    76   39  105 1    
    77   40   41 1    
    78   40   42 1    
    79   40  106 1    
    80   41  107 1    
    81   41  108 1    
    82   41  109 1    
    83   42   43 2    
    84   42   44 am   BACKBONE|DICT|INTERRES
    85   44   45 1    
    86   44  110 1    
    87   45   46 1    
    88   45   47 1    
    89   45  111 1    
    90   46  112 1    
    91   46  113 1    
    92   46  114 1    
    93   47   48 2    
    94   47   49 am   BACKBONE|DICT|INTERRES
    95   49   50 1    
    96   49  115 1    
    97   50   51 1    
    98   50   52 1    
    99   50  116 1    
   100   51  117 1    
   101   51  118 1    
   102   51  119 1    
   103   52   53 2    
   104   52   54 am   BACKBONE|DICT|INTERRES
   105   54   55 1    
   106   54  120 1    
   107   55   56 1    
   108   55   57 1    
   109   55  121 1    
   110   56  122 1    
   111   56  123 1    
   112   56  124 1    
   113   57   58 2    
   114   57   59 am   BACKBONE|DICT|INTERRES
   115   59   60 1    
   116   59  125 1    
   117   60   61 1    
   118   60   62 1    
   119   60  126 1    
   120   61  127 1    
   121   61  128 1    
   122   61  129 1    
   123   62   63 2    
   124   62   64 am   BACKBONE|DICT|INTERRES
   125   64   65 1    
   126   64  130 1    
   127   65   66 1    
   128   65   69 1    
   129   65  131 1    
   130   66   67 am   BACKBONE|DICT|INTERRES
   131   66   68 2    
   132   67  132 1    
   133   67  133 1    
   134   69   70 1    
   135   69  134 1    
   136   69  135 1    
   137   70   71 1    
   138   71  136 1    
   139   71  137 1    
@<TRIPOS>SUBSTRUCTURE
     1 UNK         1 GROUP             0       ****    0 ROOT    
