@<TRIPOS>MOLECULE
3R137
137   139    1
SMALL
USER_CHARGES


@<TRIPOS>ATOM
      1 CA         30.3344   -3.6292    1.9719 C.3       0 UNK        -0.2020 
      2 C          28.8099   -3.6565    2.0222 C.2       0 UNK         0.4855 
      3 O          28.2476   -3.9667    3.0710 O.2       0 UNK        -0.5197 
      4 N          28.0960   -3.3403    0.9359 N.am      1 UNK        -0.4892 
      5 CA         28.5861   -2.8669   -0.3627 C.3       1 UNK         0.0835 
      6 C6         28.4337   -3.9322   -1.4812 C.3       12 UNK        -0.0855 
      7 S7         29.2971   -5.5085   -1.1544 S.3       12 UNK        -0.2931 
      8 C8         30.9786   -5.1887   -1.7984 C.3       12 UNK         0.0378 
      9 C9         31.0739   -4.8452   -3.2861 C.ar      12 UNK        -0.0802 
     10 C10        32.1854   -4.1223   -3.7324 C.ar      12 UNK        -0.0944 
     11 C11        32.3167   -3.7652   -5.0774 C.ar      12 UNK        -0.0787 
     12 C12        31.3260   -4.1439   -5.9861 C.ar      12 UNK        -0.0862 
     13 C13        30.1949   -4.8388   -5.5532 C.ar      12 UNK        -0.0733 
     14 C14        30.0902   -5.2181   -4.2121 C.ar      12 UNK        -0.0832 
     15 C15        29.0549   -5.1160   -6.5226 C.3       12 UNK         0.0240 
     16 S16        27.5792   -4.1173   -6.1241 S.3       12 UNK        -0.2522 
     17 C17        28.2403   -2.4118   -6.1042 C.3       12 UNK        -0.0967 
     18 CA         27.4399   -1.4436   -7.0028 C.3       5 UNK         0.0660 
     19 N          26.0162   -1.3939   -6.6632 N.am      5 UNK        -0.4015 
     20 C          25.0646   -0.9323   -7.4865 C.2       4 UNK         0.4946 
     21 O          25.2996   -0.4920   -8.6120 O.2       4 UNK        -0.5353 
     22 CA         23.6214   -0.8955   -6.9530 C.3       4 UNK         0.0277 
     23 CB         22.9029   -2.2179   -7.2622 C.3       4 UNK        -0.1981 
     24 N          23.5356   -0.6115   -5.5168 N.am      4 UNK        -0.4209 
     25 C          23.9971    0.5041   -4.9345 C.2       3 UNK         0.4942 
     26 O          24.5097    1.4305   -5.5630 O.2       3 UNK        -0.5208 
     27 CA         23.9395    0.5942   -3.3970 C.3       3 UNK         0.0250 
     28 CB         23.2144   -0.5899   -2.7163 C.3       3 UNK        -0.1990 
     29 N          25.2812    0.7687   -2.8234 N.am      3 UNK        -0.4232 
     30 C          26.3396   -0.0381   -2.9993 C.2       2 UNK         0.4993 
     31 O          26.3143   -1.0516   -3.7011 O.2       2 UNK        -0.5286 
     32 CA         27.6636    0.3469   -2.3051 C.3       2 UNK         0.0209 
     33 CB         27.5482    1.5164   -1.3004 C.3       2 UNK        -0.1931 
     34 N          28.3064   -0.8174   -1.6807 N.am      2 UNK        -0.4546 
     35 C          27.7763   -1.6108   -0.7370 C.2       1 UNK         0.5154 
     36 O          26.6855   -1.4052   -0.1941 O.2       1 UNK        -0.5181 
     37 C          28.0888   -0.0447   -7.0113 C.2       5 UNK         0.5014 
     38 O          29.1153    0.1233   -7.6703 O.2       5 UNK        -0.5248 
     39 N          27.4888    0.9480   -6.3343 N.am      6 UNK        -0.4434 
     40 CA         27.9198    2.3471   -6.4150 C.3       6 UNK         0.0363 
     41 CB         27.3549    3.1567   -5.2378 C.3       6 UNK        -0.1936 
     42 C          27.5505    2.9966   -7.7590 C.2       6 UNK         0.5081 
     43 O          28.2346    3.9284   -8.1786 O.2       6 UNK        -0.5248 
     44 N          26.5052    2.4849   -8.4220 N.am      7 UNK        -0.4718 
     45 CA         26.1310    2.8714   -9.7803 C.3       7 UNK         0.0273 
     46 CB         24.6092    2.7336   -9.9564 C.3       7 UNK        -0.1935 
     47 C          26.8859    2.0295  -10.8201 C.2       7 UNK         0.5018 
     48 O          27.4583    2.5941  -11.7524 O.2       7 UNK        -0.5186 
     49 N          26.8602    0.6991  -10.6532 N.am      8 UNK        -0.4240 
     50 CA         27.3761   -0.2617  -11.6302 C.3       8 UNK         0.0235 
     51 CB         26.7724   -1.6487  -11.3531 C.3       8 UNK        -0.2000 
     52 C          28.9093   -0.3481  -11.6895 C.2       8 UNK         0.4941 
     53 O          29.4549   -0.4340  -12.7905 O.2       8 UNK        -0.5273 
     54 N          29.5714   -0.3616  -10.5246 N.am      9 UNK        -0.4262 
     55 CA         31.0107   -0.6218  -10.3955 C.3       9 UNK         0.0264 
     56 CB         31.1978   -1.8946   -9.5492 C.3       9 UNK        -0.1955 
     57 C          31.7909    0.5581   -9.7895 C.2       9 UNK         0.5031 
     58 O          33.0174    0.4763   -9.7116 O.2       9 UNK        -0.5390 
     59 N          31.0846    1.6194   -9.3696 N.am      10 UNK        -0.4204 
     60 CA         31.5888    2.8000   -8.6539 C.3       10 UNK         0.0237 
     61 CB         32.5839    3.6034   -9.5197 C.3       10 UNK        -0.1985 
     62 C          32.1355    2.4778   -7.2464 C.2       10 UNK         0.4970 
     63 O          32.9946    3.2048   -6.7454 O.2       10 UNK        -0.4914 
     64 N          31.6118    1.4165   -6.6197 N.am      11 UNK        -0.4285 
     65 CA         32.0000    0.9291   -5.2843 C.3       11 UNK         0.1007 
     66 C          31.2363    1.6236   -4.1157 C.2       11 UNK         0.5703 
     67 N          30.7681    2.8554   -4.2720 N.am      11 UNK        -0.7361 
     68 O          31.0616    1.0447   -3.0461 O.2       11 UNK        -0.4986 
     69 C69        31.9244   -0.6187   -5.2106 C.3       12 UNK        -0.0947 
     70 S70        33.0214   -1.4268   -6.4247 S.3       12 UNK        -0.2240 
     71 C71        33.5137   -2.9430   -5.5394 C.3       12 UNK         0.0194 
     72 H72        30.7120   -4.2473    1.1595 H         1 UNK         0.0906 
     73 H73        30.6992   -2.6106    1.8430 H         1 UNK         0.0906 
     74 H74        30.7538   -4.0168    2.9002 H         1 UNK         0.0906 
     75 H75        27.0889   -3.2838    1.0192 H         1 UNK         0.3140 
     76 H76        29.6321   -2.5649   -0.2970 H         1 UNK         0.1085 
     77 H77        27.3784   -4.1729   -1.6270 H         1 UNK         0.0836 
     78 H78        28.7729   -3.5318   -2.4378 H         1 UNK         0.0836 
     79 H79        31.4180   -4.3826   -1.2091 H         1 UNK         0.0731 
     80 H80        31.5899   -6.0726   -1.6119 H         1 UNK         0.0731 
     81 H81        32.9484   -3.8258   -3.0254 H         1 UNK         0.1312 
     82 H82        31.4145   -3.8498   -7.0231 H         1 UNK         0.1406 
     83 H83        29.2142   -5.7639   -3.8907 H         1 UNK         0.1631 
     84 H84        28.7924   -6.1740   -6.4837 H         1 UNK         0.0717 
     85 H85        29.3567   -4.9093   -7.5507 H         1 UNK         0.0717 
     86 H86        29.2774   -2.4263   -6.4384 H         1 UNK         0.0934 
     87 H87        28.2648   -2.0663   -5.0697 H         1 UNK         0.0934 
     88 H88        27.5169   -1.8213   -8.0241 H         1 UNK         0.0739 
     89 H89        25.7754   -1.6766   -5.7198 H         1 UNK         0.3093 
     90 H90        23.1019   -0.0919   -7.4794 H         1 UNK         0.0818 
     91 H91        21.8521   -2.1765   -6.9745 H         1 UNK         0.0819 
     92 H92        22.9356   -2.4379   -8.3304 H         1 UNK         0.0819 
     93 H93        23.3621   -3.0599   -6.7424 H         1 UNK         0.0819 
     94 H94        23.1475   -1.3345   -4.9282 H         1 UNK         0.3041 
     95 H95        23.3801    1.5025   -3.1682 H         1 UNK         0.0784 
     96 H96        22.1883   -0.6870   -3.0736 H         1 UNK         0.0793 
     97 H97        23.7224   -1.5403   -2.8853 H         1 UNK         0.0793 
     98 H98        23.1595   -0.4409   -1.6377 H         1 UNK         0.0793 
     99 H99        25.4055    1.5911   -2.2502 H         1 UNK         0.3024 
    100 H100       28.3312    0.6658   -3.1067 H         1 UNK         0.1171 
    101 H101       28.5172    1.7386   -0.8528 H         1 UNK         0.0786 
    102 H102       26.8545    1.2949   -0.4883 H         1 UNK         0.0786 
    103 H103       27.2120    2.4323   -1.7875 H         1 UNK         0.0786 
    104 H104       29.2008   -1.0713   -2.0769 H         1 UNK         0.2977 
    105 H105       26.6132    0.7673   -5.8580 H         1 UNK         0.3127 
    106 H106       29.0064    2.3718   -6.3383 H         1 UNK         0.0770 
    107 H107       26.2699    3.2424   -5.2803 H         1 UNK         0.0814 
    108 H108       27.7550    4.1714   -5.2440 H         1 UNK         0.0814 
    109 H109       27.6249    2.7130   -4.2814 H         1 UNK         0.0814 
    110 H110       25.9922    1.7185   -8.0074 H         1 UNK         0.2983 
    111 H111       26.3903    3.9197   -9.9466 H         1 UNK         0.0947 
    112 H112       24.3063    3.0267  -10.9625 H         1 UNK         0.0806 
    113 H113       24.0721    3.3750   -9.2574 H         1 UNK         0.0806 
    114 H114       24.2672    1.7103   -9.7988 H         1 UNK         0.0806 
    115 H115       26.3272    0.3129   -9.8749 H         1 UNK         0.3000 
    116 H116       27.0320    0.0548  -12.6176 H         1 UNK         0.0850 
    117 H117       27.1040   -2.3750  -12.0964 H         1 UNK         0.0810 
    118 H118       25.6831   -1.6212  -11.3909 H         1 UNK         0.0810 
    119 H119       27.0612   -2.0298  -10.3737 H         1 UNK         0.0810 
    120 H120       29.0601   -0.2714   -9.6533 H         1 UNK         0.3040 
    121 H121       31.4563   -0.8074  -11.3748 H         1 UNK         0.0766 
    122 H122       32.2541   -2.1469   -9.4470 H         1 UNK         0.0812 
    123 H123       30.7942   -1.7740   -8.5438 H         1 UNK         0.0812 
    124 H124       30.7044   -2.7517  -10.0073 H         1 UNK         0.0812 
    125 H125       30.0807    1.5684   -9.4684 H         1 UNK         0.3205 
    126 H126       30.7251    3.4422   -8.4902 H         1 UNK         0.0754 
    127 H127       32.8195    4.5621   -9.0560 H         1 UNK         0.0769 
    128 H128       32.1700    3.8159  -10.5054 H         1 UNK         0.0769 
    129 H129       33.5257    3.0718   -9.6575 H         1 UNK         0.0769 
    130 H130       30.8807    0.8885   -7.0845 H         1 UNK         0.2981 
    131 H131       33.0460    1.1931   -5.1194 H         1 UNK         0.0541 
    132 H132       30.9638    3.3709   -5.1144 H         1 UNK         0.3459 
    133 H133       30.2939    3.3003   -3.5033 H         1 UNK         0.3459 
    134 H134       30.9029   -0.9627   -5.3764 H         1 UNK         0.0612 
    135 H135       32.2104   -0.9666   -4.2164 H         1 UNK         0.0612 
    136 H136       34.1306   -3.5529   -6.2002 H         1 UNK         0.0624 
    137 H137       34.1449   -2.6632   -4.6945 H         1 UNK         0.0624 
@<TRIPOS>BOND
     1    1    2 1    
     2    1   72 1    
     3    1   73 1    
     4    1   74 1    
     5    2    3 2    
     6    2    4 am   BACKBONE|DICT|INTERRES
     7    4    5 1    
     8    4   75 1    
     9    5    6 1    
    10    5   35 1    
    11    5   76 1    
    12    6    7 1    
    13    6   77 1    
    14    6   78 1    
    15    7    8 1    
    16    8    9 1    
    17    8   79 1    
    18    8   80 1    
    19    9   10 ar   
    20    9   14 ar   
    21   10   11 ar   
    22   10   81 1    
    23   11   12 ar   
    24   11   71 1    
    25   12   13 ar   
    26   12   82 1    
    27   13   14 ar   
    28   13   15 1    
    29   14   83 1    
    30   15   16 1    
    31   15   84 1    
    32   15   85 1    
    33   16   17 1    
    34   17   18 1    
    35   17   86 1    
    36   17   87 1    
    37   18   19 1    
    38   18   37 1    
    39   18   88 1    
    40   19   20 am   BACKBONE|DICT|INTERRES
    41   19   89 1    
    42   20   21 2    
    43   20   22 1    
    44   22   23 1    
    45   22   24 1    
    46   22   90 1    
    47   23   91 1    
    48   23   92 1    
    49   23   93 1    
    50   24   25 am   BACKBONE|DICT|INTERRES
    51   24   94 1    
    52   25   26 2    
    53   25   27 1    
    54   27   28 1    
    55   27   29 1    
    56   27   95 1    
    57   28   96 1    
    58   28   97 1    
    59   28   98 1    
    60   29   30 am   BACKBONE|DICT|INTERRES
    61   29   99 1    
    62   30   31 2    
    63   30   32 1    
    64   32   33 1    
    65   32   34 1    
    66   32  100 1    
    67   33  101 1    
    68   33  102 1    
    69   33  103 1    
    70   34   35 am   BACKBONE|DICT|INTERRES
    71   34  104 1    
    72   35   36 2    
    73   37   38 2    
    74   37   39 am   BACKBONE|DICT|INTERRES
    75   39   40 1    
    76   39  105 1    
    77   40   41 1    
    78   40   42 1    
    79   40  106 1    
    80   41  107 1    
    81   41  108 1    
    82   41  109 1    
    83   42   43 2    
    84   42   44 am   BACKBONE|DICT|INTERRES
    85   44   45 1    
    86   44  110 1    
    87   45   46 1    
    88   45   47 1    
    89   45  111 1    
    90   46  112 1    
    91   46  113 1    
    92   46  114 1    
    93   47   48 2    
    94   47   49 am   BACKBONE|DICT|INTERRES
    95   49   50 1    
    96   49  115 1    
    97   50   51 1    
    98   50   52 1    
    99   50  116 1    
   100   51  117 1    
   101   51  118 1    
   102   51  119 1    
   103   52   53 2    
   104   52   54 am   BACKBONE|DICT|INTERRES
   105   54   55 1    
   106   54  120 1    
   107   55   56 1    
   108   55   57 1    
   109   55  121 1    
   110   56  122 1    
   111   56  123 1    
   112   56  124 1    
   113   57   58 2    
   114   57   59 am   BACKBONE|DICT|INTERRES
   115   59   60 1    
   116   59  125 1    
   117   60   61 1    
   118   60   62 1    
   119   60  126 1    
   120   61  127 1    
   121   61  128 1    
   122   61  129 1    
   123   62   63 2    
   124   62   64 am   BACKBONE|DICT|INTERRES
   125   64   65 1    
   126   64  130 1    
   127   65   66 1    
   128   65   69 1    
   129   65  131 1    
   130   66   67 am   BACKBONE|DICT|INTERRES
   131   66   68 2    
   132   67  132 1    
   133   67  133 1    
   134   69   70 1    
   135   69  134 1    
   136   69  135 1    
   137   70   71 1    
   138   71  136 1    
   139   71  137 1    
@<TRIPOS>SUBSTRUCTURE
     1 UNK         1 GROUP             0       ****    0 ROOT    
