@<TRIPOS>MOLECULE
3R137
137   139    1
SMALL
USER_CHARGES


@<TRIPOS>ATOM
      1 CA         25.4658   -4.9501   -0.8460 C.3       0 UNK        -0.2020 
      2 C          25.4575   -3.4297   -0.8204 C.2       0 UNK         0.4855 
      3 O          24.4593   -2.8313   -0.4176 O.2       0 UNK        -0.5197 
      4 N          26.5584   -2.8012   -1.2559 N.am      1 UNK        -0.4892 
      5 CA         26.7411   -1.3477   -1.3537 C.3       1 UNK         0.0835 
      6 C6         28.1533   -0.9803   -1.8697 C.3       12 UNK        -0.0855 
      7 S7         29.4783   -1.4427   -0.6985 S.3       12 UNK        -0.2931 
      8 C8         30.2125   -2.9404   -1.4430 C.3       12 UNK         0.0378 
      9 C9         30.6834   -2.7194   -2.8747 C.ar      12 UNK        -0.0802 
     10 C10        31.7097   -1.8100   -3.1503 C.ar      12 UNK        -0.0944 
     11 C11        32.1094   -1.5730   -4.4683 C.ar      12 UNK        -0.0787 
     12 C12        31.4934   -2.2707   -5.5103 C.ar      12 UNK        -0.0862 
     13 C13        30.4662   -3.1834   -5.2500 C.ar      12 UNK        -0.0733 
     14 C14        30.0737   -3.4098   -3.9274 C.ar      12 UNK        -0.0832 
     15 C15        29.7502   -3.9086   -6.3857 C.3       12 UNK         0.0240 
     16 S16        29.3473   -2.8484   -7.8183 S.3       12 UNK        -0.2522 
     17 C17        28.5876   -1.3675   -7.0652 C.3       12 UNK        -0.0967 
     18 CA         27.0519   -1.3388   -7.2343 C.3       5 UNK         0.0660 
     19 N          26.4097   -2.2977   -6.3321 N.am      5 UNK        -0.4015 
     20 C          25.1209   -2.6587   -6.3501 C.2       4 UNK         0.4946 
     21 O          24.2849   -2.1832   -7.1196 O.2       4 UNK        -0.5353 
     22 CA         24.6880   -3.7499   -5.3576 C.3       4 UNK         0.0277 
     23 CB         25.8556   -4.4661   -4.6445 C.3       4 UNK        -0.1981 
     24 N          23.8189   -3.1463   -4.3535 N.am      4 UNK        -0.4209 
     25 C          22.5661   -3.5306   -4.0736 C.2       3 UNK         0.4942 
     26 O          21.9968   -4.4630   -4.6435 O.2       3 UNK        -0.5208 
     27 CA         21.8119   -2.7767   -2.9595 C.3       3 UNK         0.0250 
     28 CB         21.4344   -3.7303   -1.8122 C.3       3 UNK        -0.1990 
     29 N          22.5738   -1.6512   -2.4117 N.am      3 UNK        -0.4232 
     30 C          22.5928   -0.4205   -2.9439 C.2       2 UNK         0.4993 
     31 O          21.9075   -0.0837   -3.9093 O.2       2 UNK        -0.5286 
     32 CA         23.5516    0.6081   -2.3165 C.3       2 UNK         0.0209 
     33 CB         22.8014    1.4976   -1.3122 C.3       2 UNK        -0.1931 
     34 N          24.7226    0.0183   -1.6569 N.am      2 UNK        -0.4546 
     35 C          25.6604   -0.7262   -2.2593 C.2       1 UNK         0.5154 
     36 O          25.6678   -0.9769   -3.4670 O.2       1 UNK        -0.5181 
     37 C          26.5472    0.1086   -7.0740 C.2       5 UNK         0.5014 
     38 O          26.5333    0.8386   -8.0662 O.2       5 UNK        -0.5248 
     39 N          26.1835    0.5076   -5.8453 N.am      6 UNK        -0.4434 
     40 CA         25.8310    1.8685   -5.4309 C.3       6 UNK         0.0363 
     41 CB         24.4777    2.3043   -6.0352 C.3       6 UNK        -0.1936 
     42 C          26.9816    2.8616   -5.6803 C.2       6 UNK         0.5081 
     43 O          27.9100    2.9167   -4.8724 O.2       6 UNK        -0.5248 
     44 N          26.9182    3.6191   -6.7828 N.am      7 UNK        -0.4718 
     45 CA         27.8927    4.6355   -7.1922 C.3       7 UNK         0.0273 
     46 CB         27.2153    5.5894   -8.1941 C.3       7 UNK        -0.1935 
     47 C          29.2011    4.0296   -7.7446 C.2       7 UNK         0.5018 
     48 O          29.5611    4.2824   -8.8966 O.2       7 UNK        -0.5186 
     49 N          29.8865    3.2405   -6.9067 N.am      8 UNK        -0.4240 
     50 CA         31.1770    2.5631   -7.0992 C.3       8 UNK         0.0235 
     51 CB         32.3178    3.5704   -7.3440 C.3       8 UNK        -0.2000 
     52 C          31.1812    1.4553   -8.1664 C.2       8 UNK         0.4941 
     53 O          31.6241    0.3488   -7.8604 O.2       8 UNK        -0.5273 
     54 N          30.7058    1.7737   -9.3792 N.am      9 UNK        -0.4262 
     55 CA         30.5974    0.9450  -10.5876 C.3       9 UNK         0.0264 
     56 CB         29.2856    0.1346  -10.5744 C.3       9 UNK        -0.1955 
     57 C          31.8457    0.0839  -10.8577 C.2       9 UNK         0.5031 
     58 O          32.7921    0.5755  -11.4746 O.2       9 UNK        -0.5390 
     59 N          31.8415   -1.1629  -10.3634 N.am      10 UNK        -0.4204 
     60 CA         32.9447   -2.1240  -10.4438 C.3       10 UNK         0.0237 
     61 CB         32.5034   -3.4529   -9.8094 C.3       10 UNK        -0.1985 
     62 C          34.2588   -1.6388   -9.8031 C.2       10 UNK         0.4970 
     63 O          35.3255   -2.0451  -10.2665 O.2       10 UNK        -0.4914 
     64 N          34.1711   -0.7791   -8.7782 N.am      11 UNK        -0.4285 
     65 CA         35.3341   -0.1203   -8.1596 C.3       11 UNK         0.1007 
     66 C          35.8665    1.1050   -8.9615 C.2       11 UNK         0.5703 
     67 N          35.2294    1.5378  -10.0444 N.am      11 UNK        -0.7361 
     68 O          36.8935    1.6732   -8.5976 O.2       11 UNK        -0.4986 
     69 C69        35.0907    0.2479   -6.6717 C.3       12 UNK        -0.0947 
     70 S70        34.5940   -1.1848   -5.6540 S.3       12 UNK        -0.2240 
     71 C71        33.1457   -0.5072   -4.7839 C.3       12 UNK         0.0194 
     72 H72        25.3006   -5.3420    0.1572 H         1 UNK         0.0906 
     73 H73        24.6680   -5.3174   -1.4908 H         1 UNK         0.0906 
     74 H74        26.4107   -5.3484   -1.2150 H         1 UNK         0.0906 
     75 H75        27.3471   -3.3504   -1.5598 H         1 UNK         0.3140 
     76 H76        26.6277   -0.9349   -0.3489 H         1 UNK         0.1085 
     77 H77        28.2312    0.0989   -2.0185 H         1 UNK         0.0836 
     78 H78        28.3331   -1.4221   -2.8504 H         1 UNK         0.0836 
     79 H79        29.4903   -3.7559   -1.3899 H         1 UNK         0.0731 
     80 H80        31.0635   -3.2515   -0.8355 H         1 UNK         0.0731 
     81 H81        32.1695   -1.2628   -2.3385 H         1 UNK         0.1312 
     82 H82        31.7936   -2.0713   -6.5302 H         1 UNK         0.1406 
     83 H83        29.2797   -4.1135   -3.7181 H         1 UNK         0.1631 
     84 H84        28.8256   -4.3625   -6.0288 H         1 UNK         0.0717 
     85 H85        30.3817   -4.7292   -6.7282 H         1 UNK         0.0717 
     86 H86        28.8562   -1.2709   -6.0129 H         1 UNK         0.0934 
     87 H87        29.0506   -0.5055   -7.5455 H         1 UNK         0.0934 
     88 H88        26.8076   -1.6382   -8.2561 H         1 UNK         0.0739 
     89 H89        27.0124   -2.7359   -5.6539 H         1 UNK         0.3093 
     90 H90        24.1433   -4.4954   -5.9408 H         1 UNK         0.0818 
     91 H91        26.4396   -3.7879   -4.0216 H         1 UNK         0.0819 
     92 H92        25.4823   -5.2611   -3.9990 H         1 UNK         0.0819 
     93 H93        26.5279   -4.9369   -5.3627 H         1 UNK         0.0819 
     94 H94        24.1983   -2.3285   -3.8885 H         1 UNK         0.3041 
     95 H95        20.8851   -2.4004   -3.3981 H         1 UNK         0.0784 
     96 H96        20.7963   -4.5396   -2.1697 H         1 UNK         0.0793 
     97 H97        22.3138   -4.1875   -1.3585 H         1 UNK         0.0793 
     98 H98        20.8848   -3.2097   -1.0278 H         1 UNK         0.0793 
     99 H99        23.1825   -1.8598   -1.6243 H         1 UNK         0.3024 
    100 H100       23.9060    1.2423   -3.1288 H         1 UNK         0.1171 
    101 H101       23.4399    2.2962   -0.9338 H         1 UNK         0.0786 
    102 H102       21.9371    1.9718   -1.7798 H         1 UNK         0.0786 
    103 H103       22.4364    0.9244   -0.4590 H         1 UNK         0.0786 
    104 H104       24.7730    0.1351   -0.6546 H         1 UNK         0.2977 
    105 H105       26.1912   -0.1759   -5.0913 H         1 UNK         0.3127 
    106 H106       25.7117    1.8331   -4.3486 H         1 UNK         0.0770 
    107 H107       24.4837    2.2999   -7.1253 H         1 UNK         0.0814 
    108 H108       24.2096    3.3106   -5.7107 H         1 UNK         0.0814 
    109 H109       23.6766    1.6389   -5.7128 H         1 UNK         0.0814 
    110 H110       26.1642    3.4358   -7.4299 H         1 UNK         0.2983 
    111 H111       28.1653    5.2226   -6.3123 H         1 UNK         0.0947 
    112 H112       27.8939    6.3896   -8.4930 H         1 UNK         0.0806 
    113 H113       26.3340    6.0619   -7.7598 H         1 UNK         0.0806 
    114 H114       26.9054    5.0686   -9.1010 H         1 UNK         0.0806 
    115 H115       29.4359    3.0640   -6.0112 H         1 UNK         0.3000 
    116 H116       31.3805    2.0723   -6.1469 H         1 UNK         0.0850 
    117 H117       33.2790    3.0615   -7.4238 H         1 UNK         0.0810 
    118 H118       32.3969    4.2846   -6.5245 H         1 UNK         0.0810 
    119 H119       32.1774    4.1343   -8.2665 H         1 UNK         0.0810 
    120 H120       30.3649    2.7288   -9.4743 H         1 UNK         0.3040 
    121 H121       30.5293    1.6466  -11.4204 H         1 UNK         0.0766 
    122 H122       28.4204    0.7893  -10.4654 H         1 UNK         0.0812 
    123 H123       29.2495   -0.5896   -9.7654 H         1 UNK         0.0812 
    124 H124       29.1580   -0.4149  -11.5080 H         1 UNK         0.0812 
    125 H125       31.0452   -1.4416   -9.8077 H         1 UNK         0.3205 
    126 H126       33.1443   -2.2979  -11.5030 H         1 UNK         0.0754 
    127 H127       33.2832   -4.2096   -9.9062 H         1 UNK         0.0769 
    128 H128       31.6084   -3.8480  -10.2906 H         1 UNK         0.0769 
    129 H129       32.2910   -3.3398   -8.7454 H         1 UNK         0.0769 
    130 H130       33.2557   -0.4766   -8.4546 H         1 UNK         0.2981 
    131 H131       36.1562   -0.8386   -8.1638 H         1 UNK         0.0541 
    132 H132       34.3951    1.0771  -10.3914 H         1 UNK         0.3459 
    133 H133       35.6030    2.3285  -10.5442 H         1 UNK         0.3459 
    134 H134       34.3414    1.0368   -6.6045 H         1 UNK         0.0612 
    135 H135       35.9989    0.6582   -6.2266 H         1 UNK         0.0612 
    136 H136       32.6580    0.2506   -5.3942 H         1 UNK         0.0624 
    137 H137       33.4840   -0.0029   -3.8776 H         1 UNK         0.0624 
@<TRIPOS>BOND
     1    1    2 1    
     2    1   72 1    
     3    1   73 1    
     4    1   74 1    
     5    2    3 2    
     6    2    4 am   BACKBONE|DICT|INTERRES
     7    4    5 1    
     8    4   75 1    
     9    5    6 1    
    10    5   35 1    
    11    5   76 1    
    12    6    7 1    
    13    6   77 1    
    14    6   78 1    
    15    7    8 1    
    16    8    9 1    
    17    8   79 1    
    18    8   80 1    
    19    9   10 ar   
    20    9   14 ar   
    21   10   11 ar   
    22   10   81 1    
    23   11   12 ar   
    24   11   71 1    
    25   12   13 ar   
    26   12   82 1    
    27   13   14 ar   
    28   13   15 1    
    29   14   83 1    
    30   15   16 1    
    31   15   84 1    
    32   15   85 1    
    33   16   17 1    
    34   17   18 1    
    35   17   86 1    
    36   17   87 1    
    37   18   19 1    
    38   18   37 1    
    39   18   88 1    
    40   19   20 am   BACKBONE|DICT|INTERRES
    41   19   89 1    
    42   20   21 2    
    43   20   22 1    
    44   22   23 1    
    45   22   24 1    
    46   22   90 1    
    47   23   91 1    
    48   23   92 1    
    49   23   93 1    
    50   24   25 am   BACKBONE|DICT|INTERRES
    51   24   94 1    
    52   25   26 2    
    53   25   27 1    
    54   27   28 1    
    55   27   29 1    
    56   27   95 1    
    57   28   96 1    
    58   28   97 1    
    59   28   98 1    
    60   29   30 am   BACKBONE|DICT|INTERRES
    61   29   99 1    
    62   30   31 2    
    63   30   32 1    
    64   32   33 1    
    65   32   34 1    
    66   32  100 1    
    67   33  101 1    
    68   33  102 1    
    69   33  103 1    
    70   34   35 am   BACKBONE|DICT|INTERRES
    71   34  104 1    
    72   35   36 2    
    73   37   38 2    
    74   37   39 am   BACKBONE|DICT|INTERRES
    75   39   40 1    
    76   39  105 1    
    77   40   41 1    
    78   40   42 1    
    79   40  106 1    
    80   41  107 1    
    81   41  108 1    
    82   41  109 1    
    83   42   43 2    
    84   42   44 am   BACKBONE|DICT|INTERRES
    85   44   45 1    
    86   44  110 1    
    87   45   46 1    
    88   45   47 1    
    89   45  111 1    
    90   46  112 1    
    91   46  113 1    
    92   46  114 1    
    93   47   48 2    
    94   47   49 am   BACKBONE|DICT|INTERRES
    95   49   50 1    
    96   49  115 1    
    97   50   51 1    
    98   50   52 1    
    99   50  116 1    
   100   51  117 1    
   101   51  118 1    
   102   51  119 1    
   103   52   53 2    
   104   52   54 am   BACKBONE|DICT|INTERRES
   105   54   55 1    
   106   54  120 1    
   107   55   56 1    
   108   55   57 1    
   109   55  121 1    
   110   56  122 1    
   111   56  123 1    
   112   56  124 1    
   113   57   58 2    
   114   57   59 am   BACKBONE|DICT|INTERRES
   115   59   60 1    
   116   59  125 1    
   117   60   61 1    
   118   60   62 1    
   119   60  126 1    
   120   61  127 1    
   121   61  128 1    
   122   61  129 1    
   123   62   63 2    
   124   62   64 am   BACKBONE|DICT|INTERRES
   125   64   65 1    
   126   64  130 1    
   127   65   66 1    
   128   65   69 1    
   129   65  131 1    
   130   66   67 am   BACKBONE|DICT|INTERRES
   131   66   68 2    
   132   67  132 1    
   133   67  133 1    
   134   69   70 1    
   135   69  134 1    
   136   69  135 1    
   137   70   71 1    
   138   71  136 1    
   139   71  137 1    
@<TRIPOS>SUBSTRUCTURE
     1 UNK         1 GROUP             0       ****    0 ROOT    
