@<TRIPOS>MOLECULE
3R137
137   139    1
SMALL
USER_CHARGES


@<TRIPOS>ATOM
      1 CA         24.9194   -6.0578   -4.9067 C.3       0 UNK        -0.2020 
      2 C          25.2649   -5.2151   -3.6890 C.2       0 UNK         0.4855 
      3 O          24.3714   -4.6197   -3.0861 O.2       0 UNK        -0.5197 
      4 N          26.5534   -5.1524   -3.3242 N.am      1 UNK        -0.4892 
      5 CA         27.0654   -4.3810   -2.1860 C.3       1 UNK         0.0835 
      6 C6         28.5689   -4.6542   -1.9430 C.3       12 UNK        -0.0855 
      7 S7         29.1026   -4.0847   -0.2932 S.3       12 UNK        -0.2931 
      8 C8         30.9025   -3.9196   -0.5201 C.3       12 UNK         0.0378 
      9 C9         31.2956   -2.8338   -1.5172 C.ar      12 UNK        -0.0802 
     10 C10        32.1405   -3.1462   -2.5862 C.ar      12 UNK        -0.0944 
     11 C11        32.5718   -2.1511   -3.4676 C.ar      12 UNK        -0.0787 
     12 C12        32.1400   -0.8345   -3.2846 C.ar      12 UNK        -0.0862 
     13 C13        31.2792   -0.5083   -2.2305 C.ar      12 UNK        -0.0733 
     14 C14        30.8656   -1.5127   -1.3475 C.ar      12 UNK        -0.0832 
     15 C15        30.8326    0.9339   -2.0096 C.3       12 UNK         0.0240 
     16 S16        30.1308    1.7152   -3.5006 S.3       12 UNK        -0.2522 
     17 C17        28.5854    0.7774   -3.7193 C.3       12 UNK        -0.0967 
     18 CA         28.0869    0.7821   -5.1872 C.3       5 UNK         0.0660 
     19 N          27.2545   -0.3910   -5.4700 N.am      5 UNK        -0.4015 
     20 C          26.7192   -0.7068   -6.6579 C.2       4 UNK         0.4946 
     21 O          26.8863   -0.0564   -7.6871 O.2       4 UNK        -0.5353 
     22 CA         25.7862   -1.9251   -6.6915 C.3       4 UNK         0.0277 
     23 CB         26.5873   -3.2359   -6.7405 C.3       4 UNK        -0.1981 
     24 N          24.8650   -1.9260   -5.5532 N.am      4 UNK        -0.4209 
     25 C          23.8573   -1.0523   -5.4076 C.2       3 UNK         0.4942 
     26 O          23.5501   -0.2130   -6.2537 O.2       3 UNK        -0.5208 
     27 CA         23.0917   -1.0905   -4.0752 C.3       3 UNK         0.0250 
     28 CB         21.9959   -2.1675   -4.1051 C.3       3 UNK        -0.1990 
     29 N          23.9757   -1.3070   -2.9265 N.am      3 UNK        -0.4232 
     30 C          24.8836   -0.4143   -2.5027 C.2       2 UNK         0.4993 
     31 O          25.0476    0.6898   -3.0190 O.2       2 UNK        -0.5286 
     32 CA         25.8016   -0.8332   -1.3420 C.3       2 UNK         0.0209 
     33 CB         25.1587   -0.4798    0.0081 C.3       2 UNK        -0.1931 
     34 N          26.1675   -2.2520   -1.3547 N.am      2 UNK        -0.4546 
     35 C          26.7862   -2.8756   -2.3667 C.2       1 UNK         0.5154 
     36 O          27.1124   -2.3196   -3.4180 O.2       1 UNK        -0.5181 
     37 C          27.3792    2.1066   -5.5517 C.2       5 UNK         0.5014 
     38 O          27.9806    2.9585   -6.2077 O.2       5 UNK        -0.5248 
     39 N          26.1050    2.2398   -5.1531 N.am      6 UNK        -0.4434 
     40 CA         25.2427    3.3756   -5.4845 C.3       6 UNK         0.0363 
     41 CB         23.9451    3.2907   -4.6650 C.3       6 UNK        -0.1936 
     42 C          24.9218    3.4854   -6.9854 C.2       6 UNK         0.5081 
     43 O          24.8169    4.6033   -7.4915 O.2       6 UNK        -0.5248 
     44 N          24.7635    2.3418   -7.6673 N.am      7 UNK        -0.4718 
     45 CA         24.5156    2.2709   -9.1082 C.3       7 UNK         0.0273 
     46 CB         23.9877    0.8766   -9.4857 C.3       7 UNK        -0.1935 
     47 C          25.7621    2.6411   -9.9283 C.2       7 UNK         0.5018 
     48 O          25.6868    3.5491  -10.7576 O.2       7 UNK        -0.5186 
     49 N          26.8798    1.9490   -9.6747 N.am      8 UNK        -0.4240 
     50 CA         28.1731    2.1575  -10.3211 C.3       8 UNK         0.0235 
     51 CB         28.1256    1.7612  -11.8132 C.3       8 UNK        -0.2000 
     52 C          29.2252    1.3333   -9.5736 C.2       8 UNK         0.4941 
     53 O          29.2880    0.1159   -9.7617 O.2       8 UNK        -0.5273 
     54 N          30.0546    1.9984   -8.7596 N.am      9 UNK        -0.4262 
     55 CA         31.1400    1.4037   -7.9689 C.3       9 UNK         0.0264 
     56 CB         31.5518    2.3976   -6.8673 C.3       9 UNK        -0.1955 
     57 C          32.3443    0.9529   -8.8244 C.2       9 UNK         0.5031 
     58 O          33.4817    1.3384   -8.5453 O.2       9 UNK        -0.5390 
     59 N          32.0820    0.1301   -9.8481 N.am      10 UNK        -0.4204 
     60 CA         33.0632   -0.4132  -10.7948 C.3       10 UNK         0.0237 
     61 CB         32.3229   -1.1847  -11.8991 C.3       10 UNK        -0.1985 
     62 C          34.1379   -1.3002  -10.1400 C.2       10 UNK         0.4970 
     63 O          35.2404   -1.4092  -10.6778 O.2       10 UNK        -0.4914 
     64 N          33.8048   -1.8933   -8.9878 N.am      11 UNK        -0.4285 
     65 CA         34.7300   -2.6074   -8.1010 C.3       11 UNK         0.1007 
     66 C          35.7391   -1.6998   -7.3345 C.2       11 UNK         0.5703 
     67 N          35.6046   -0.3777   -7.3448 N.am      11 UNK        -0.7361 
     68 O          36.6738   -2.2110   -6.7224 O.2       11 UNK        -0.4986 
     69 C69        33.9682   -3.5728   -7.1540 C.3       12 UNK        -0.0947 
     70 S70        32.6539   -2.7808   -6.1584 S.3       12 UNK        -0.2240 
     71 C71        33.5333   -2.4970   -4.5930 C.3       12 UNK         0.0194 
     72 H72        25.8100   -6.3852   -5.4428 H         1 UNK         0.0906 
     73 H73        24.3601   -6.9419   -4.6019 H         1 UNK         0.0906 
     74 H74        24.2989   -5.4858   -5.5960 H         1 UNK         0.0906 
     75 H75        27.2478   -5.6411   -3.8711 H         1 UNK         0.3140 
     76 H76        26.5130   -4.7310   -1.3108 H         1 UNK         0.1085 
     77 H77        29.1782   -4.1899   -2.7213 H         1 UNK         0.0836 
     78 H78        28.7709   -5.7252   -1.9973 H         1 UNK         0.0836 
     79 H79        31.3061   -4.8886   -0.8183 H         1 UNK         0.0731 
     80 H80        31.3550   -3.6851    0.4443 H         1 UNK         0.0731 
     81 H81        32.4842   -4.1628   -2.7213 H         1 UNK         0.1312 
     82 H82        32.4775   -0.0616   -3.9619 H         1 UNK         0.1406 
     83 H83        30.2184   -1.2686   -0.5158 H         1 UNK         0.1631 
     84 H84        31.6951    1.5173   -1.6852 H         1 UNK         0.0717 
     85 H85        30.0986    0.9970   -1.2047 H         1 UNK         0.0717 
     86 H86        28.7795   -0.2478   -3.4014 H         1 UNK         0.0934 
     87 H87        27.8294    1.1659   -3.0350 H         1 UNK         0.0934 
     88 H88        28.9532    0.6888   -5.8445 H         1 UNK         0.0739 
     89 H89        27.0971   -1.0292   -4.6916 H         1 UNK         0.3093 
     90 H90        25.1937   -1.8615   -7.6069 H         1 UNK         0.0818 
     91 H91        27.1658   -3.4001   -5.8314 H         1 UNK         0.0819 
     92 H92        25.9316   -4.0934   -6.8854 H         1 UNK         0.0819 
     93 H93        27.2910   -3.2276   -7.5742 H         1 UNK         0.0819 
     94 H94        25.0826   -2.5437   -4.7836 H         1 UNK         0.3041 
     95 H95        22.6079   -0.1197   -3.9459 H         1 UNK         0.0784 
     96 H96        21.3035   -1.9937   -4.9301 H         1 UNK         0.0793 
     97 H97        22.4108   -3.1675   -4.2349 H         1 UNK         0.0793 
     98 H98        21.4104   -2.1638   -3.1857 H         1 UNK         0.0793 
     99 H99        23.9330   -2.2120   -2.4761 H         1 UNK         0.3024 
    100 H100       26.7258   -0.2604   -1.4375 H         1 UNK         0.1171 
    101 H101       25.8407   -0.6745    0.8360 H         1 UNK         0.0786 
    102 H102       24.8964    0.5785    0.0497 H         1 UNK         0.0786 
    103 H103       24.2450   -1.0493    0.1830 H         1 UNK         0.0786 
    104 H104       25.9366   -2.7833   -0.5272 H         1 UNK         0.2977 
    105 H105       25.6997    1.5275   -4.5481 H         1 UNK         0.3127 
    106 H106       25.7698    4.2868   -5.1938 H         1 UNK         0.0770 
    107 H107       23.3917    2.3761   -4.8826 H         1 UNK         0.0814 
    108 H108       23.2871    4.1325   -4.8846 H         1 UNK         0.0814 
    109 H109       24.1503    3.3103   -3.5946 H         1 UNK         0.0814 
    110 H110       24.8389    1.4617   -7.1717 H         1 UNK         0.2983 
    111 H111       23.7352    2.9957   -9.3515 H         1 UNK         0.0947 
    112 H112       23.7798    0.8152  -10.5547 H         1 UNK         0.0806 
    113 H113       23.0590    0.6510   -8.9611 H         1 UNK         0.0806 
    114 H114       24.7025    0.0892   -9.2472 H         1 UNK         0.0806 
    115 H115       26.8625    1.2217   -8.9561 H         1 UNK         0.3000 
    116 H116       28.4327    3.2157  -10.2477 H         1 UNK         0.0850 
    117 H117       27.4754    2.4207  -12.3874 H         1 UNK         0.0810 
    118 H118       29.1171    1.8199  -12.2641 H         1 UNK         0.0810 
    119 H119       27.7666    0.7398  -11.9466 H         1 UNK         0.0810 
    120 H120       29.9329    2.9963   -8.6603 H         1 UNK         0.3040 
    121 H121       30.7500    0.5091   -7.4790 H         1 UNK         0.0766 
    122 H122       30.6965    2.7034   -6.2661 H         1 UNK         0.0812 
    123 H123       32.0041    3.2983   -7.2841 H         1 UNK         0.0812 
    124 H124       32.2785    1.9497   -6.1880 H         1 UNK         0.0812 
    125 H125       31.1039   -0.1178   -9.9931 H         1 UNK         0.3205 
    126 H126       33.5789    0.4333  -11.2529 H         1 UNK         0.0754 
    127 H127       33.0223   -1.5785  -12.6381 H         1 UNK         0.0769 
    128 H128       31.6207   -0.5413  -12.4300 H         1 UNK         0.0769 
    129 H129       31.7637   -2.0296  -11.4949 H         1 UNK         0.0769 
    130 H130       32.8773   -1.7462   -8.6193 H         1 UNK         0.2981 
    131 H131       35.3526   -3.2343   -8.7422 H         1 UNK         0.0541 
    132 H132       34.8441    0.0766   -7.8394 H         1 UNK         0.3459 
    133 H133       36.2761    0.1835   -6.8464 H         1 UNK         0.3459 
    134 H134       34.6606   -4.1085   -6.5023 H         1 UNK         0.0612 
    135 H135       33.4876   -4.3474   -7.7535 H         1 UNK         0.0612 
    136 H136       34.2560   -1.6906   -4.7245 H         1 UNK         0.0624 
    137 H137       34.1080   -3.3859   -4.3284 H         1 UNK         0.0624 
@<TRIPOS>BOND
     1    1    2 1    
     2    1   72 1    
     3    1   73 1    
     4    1   74 1    
     5    2    3 2    
     6    2    4 am   BACKBONE|DICT|INTERRES
     7    4    5 1    
     8    4   75 1    
     9    5    6 1    
    10    5   35 1    
    11    5   76 1    
    12    6    7 1    
    13    6   77 1    
    14    6   78 1    
    15    7    8 1    
    16    8    9 1    
    17    8   79 1    
    18    8   80 1    
    19    9   10 ar   
    20    9   14 ar   
    21   10   11 ar   
    22   10   81 1    
    23   11   12 ar   
    24   11   71 1    
    25   12   13 ar   
    26   12   82 1    
    27   13   14 ar   
    28   13   15 1    
    29   14   83 1    
    30   15   16 1    
    31   15   84 1    
    32   15   85 1    
    33   16   17 1    
    34   17   18 1    
    35   17   86 1    
    36   17   87 1    
    37   18   19 1    
    38   18   37 1    
    39   18   88 1    
    40   19   20 am   BACKBONE|DICT|INTERRES
    41   19   89 1    
    42   20   21 2    
    43   20   22 1    
    44   22   23 1    
    45   22   24 1    
    46   22   90 1    
    47   23   91 1    
    48   23   92 1    
    49   23   93 1    
    50   24   25 am   BACKBONE|DICT|INTERRES
    51   24   94 1    
    52   25   26 2    
    53   25   27 1    
    54   27   28 1    
    55   27   29 1    
    56   27   95 1    
    57   28   96 1    
    58   28   97 1    
    59   28   98 1    
    60   29   30 am   BACKBONE|DICT|INTERRES
    61   29   99 1    
    62   30   31 2    
    63   30   32 1    
    64   32   33 1    
    65   32   34 1    
    66   32  100 1    
    67   33  101 1    
    68   33  102 1    
    69   33  103 1    
    70   34   35 am   BACKBONE|DICT|INTERRES
    71   34  104 1    
    72   35   36 2    
    73   37   38 2    
    74   37   39 am   BACKBONE|DICT|INTERRES
    75   39   40 1    
    76   39  105 1    
    77   40   41 1    
    78   40   42 1    
    79   40  106 1    
    80   41  107 1    
    81   41  108 1    
    82   41  109 1    
    83   42   43 2    
    84   42   44 am   BACKBONE|DICT|INTERRES
    85   44   45 1    
    86   44  110 1    
    87   45   46 1    
    88   45   47 1    
    89   45  111 1    
    90   46  112 1    
    91   46  113 1    
    92   46  114 1    
    93   47   48 2    
    94   47   49 am   BACKBONE|DICT|INTERRES
    95   49   50 1    
    96   49  115 1    
    97   50   51 1    
    98   50   52 1    
    99   50  116 1    
   100   51  117 1    
   101   51  118 1    
   102   51  119 1    
   103   52   53 2    
   104   52   54 am   BACKBONE|DICT|INTERRES
   105   54   55 1    
   106   54  120 1    
   107   55   56 1    
   108   55   57 1    
   109   55  121 1    
   110   56  122 1    
   111   56  123 1    
   112   56  124 1    
   113   57   58 2    
   114   57   59 am   BACKBONE|DICT|INTERRES
   115   59   60 1    
   116   59  125 1    
   117   60   61 1    
   118   60   62 1    
   119   60  126 1    
   120   61  127 1    
   121   61  128 1    
   122   61  129 1    
   123   62   63 2    
   124   62   64 am   BACKBONE|DICT|INTERRES
   125   64   65 1    
   126   64  130 1    
   127   65   66 1    
   128   65   69 1    
   129   65  131 1    
   130   66   67 am   BACKBONE|DICT|INTERRES
   131   66   68 2    
   132   67  132 1    
   133   67  133 1    
   134   69   70 1    
   135   69  134 1    
   136   69  135 1    
   137   70   71 1    
   138   71  136 1    
   139   71  137 1    
@<TRIPOS>SUBSTRUCTURE
     1 UNK         1 GROUP             0       ****    0 ROOT    
