@<TRIPOS>MOLECULE
3R137
137   139    1
SMALL
USER_CHARGES


@<TRIPOS>ATOM
      1 CA         23.3536   -4.3789   -2.6485 C.3       0 UNK        -0.2020 
      2 C          24.3267   -3.3969   -2.0149 C.2       0 UNK         0.4855 
      3 O          23.8956   -2.4948   -1.2960 O.2       0 UNK        -0.5197 
      4 N          25.6317   -3.5639   -2.2771 N.am      1 UNK        -0.4892 
      5 CA         26.7321   -2.7399   -1.7570 C.3       1 UNK         0.0835 
      6 C6         28.1140   -3.2415   -2.2394 C.3       12 UNK        -0.0855 
      7 S7         28.4504   -4.9552   -1.7109 S.3       12 UNK        -0.2931 
      8 C8         30.2702   -4.9419   -1.5348 C.3       12 UNK         0.0378 
      9 C9         31.0198   -4.6241   -2.8284 C.ar      12 UNK        -0.0802 
     10 C10        32.1689   -3.8263   -2.7861 C.ar      12 UNK        -0.0944 
     11 C11        32.8704   -3.5210   -3.9576 C.ar      12 UNK        -0.0787 
     12 C12        32.4138   -4.0169   -5.1813 C.ar      12 UNK        -0.0862 
     13 C13        31.2598   -4.8007   -5.2404 C.ar      12 UNK        -0.0733 
     14 C14        30.5840   -5.1241   -4.0609 C.ar      12 UNK        -0.0832 
     15 C15        30.7074   -5.2475   -6.5849 C.3       12 UNK         0.0240 
     16 S16        29.9701   -3.8526   -7.4992 S.3       12 UNK        -0.2522 
     17 C17        28.7591   -3.2136   -6.2939 C.3       12 UNK        -0.0967 
     18 CA         27.9867   -1.9731   -6.8102 C.3       5 UNK         0.0660 
     19 N          26.6014   -1.9755   -6.3208 N.am      5 UNK        -0.4015 
     20 C          25.6531   -1.0624   -6.5714 C.2       4 UNK         0.4946 
     21 O          25.8579   -0.0011   -7.1615 O.2       4 UNK        -0.5353 
     22 CA         24.2311   -1.3953   -6.1083 C.3       4 UNK         0.0277 
     23 CB         23.9522   -2.9076   -5.9760 C.3       4 UNK        -0.1981 
     24 N          23.9442   -0.7225   -4.8425 N.am      4 UNK        -0.4209 
     25 C          22.7490   -0.2015   -4.5272 C.2       3 UNK         0.4942 
     26 O          21.7905   -0.1973   -5.3019 O.2       3 UNK        -0.5208 
     27 CA         22.5477    0.3924   -3.1198 C.3       3 UNK         0.0250 
     28 CB         21.3844   -0.3091   -2.3956 C.3       3 UNK        -0.1990 
     29 N          23.7393    0.3027   -2.2757 N.am      3 UNK        -0.4232 
     30 C          24.6653    1.2636   -2.1549 C.2       2 UNK         0.4993 
     31 O          24.6176    2.3413   -2.7476 O.2       2 UNK        -0.5286 
     32 CA         25.8527    0.9765   -1.2165 C.3       2 UNK         0.0209 
     33 CB         25.5592    1.5261    0.1890 C.3       2 UNK        -0.1931 
     34 N          26.2078   -0.4420   -1.1091 N.am      2 UNK        -0.4546 
     35 C          26.5328   -1.2567   -2.1230 C.2       1 UNK         0.5154 
     36 O          26.6149   -0.9020   -3.3036 O.2       1 UNK        -0.5181 
     37 C          28.7661   -0.6648   -6.5430 C.2       5 UNK         0.5014 
     38 O          29.5945   -0.2833   -7.3696 O.2       5 UNK        -0.5248 
     39 N          28.4556    0.0269   -5.4354 N.am      6 UNK        -0.4434 
     40 CA         29.0234    1.3339   -5.0874 C.3       6 UNK         0.0363 
     41 CB         28.5824    1.7131   -3.6700 C.3       6 UNK        -0.1936 
     42 C          28.6590    2.4719   -6.0636 C.2       6 UNK         0.5081 
     43 O          29.3542    3.4890   -6.0767 O.2       6 UNK        -0.5248 
     44 N          27.5841    2.3003   -6.8427 N.am      7 UNK        -0.4718 
     45 CA         27.1653    3.2182   -7.9016 C.3       7 UNK         0.0273 
     46 CB         25.7018    3.6251   -7.6626 C.3       7 UNK        -0.1935 
     47 C          27.3219    2.5764   -9.2884 C.2       7 UNK         0.5018 
     48 O          27.6821    3.2747  -10.2366 O.2       7 UNK        -0.5186 
     49 N          27.0257    1.2734   -9.3941 N.am      8 UNK        -0.4240 
     50 CA         26.9916    0.5279  -10.6534 C.3       8 UNK         0.0235 
     51 CB         26.1349   -0.7352  -10.4626 C.3       8 UNK        -0.2000 
     52 C          28.3724    0.1565  -11.2229 C.2       8 UNK         0.4941 
     53 O          28.4524   -0.1163  -12.4221 O.2       8 UNK        -0.5273 
     54 N          29.4174    0.1208  -10.3866 N.am      9 UNK        -0.4262 
     55 CA         30.7734   -0.2788  -10.7667 C.3       9 UNK         0.0264 
     56 CB         31.0375   -1.6973  -10.2290 C.3       9 UNK        -0.1955 
     57 C          31.8055    0.7213  -10.2279 C.2       9 UNK         0.5031 
     58 O          31.4480    1.6878   -9.5501 O.2       9 UNK        -0.5390 
     59 N          33.0859    0.4509  -10.5233 N.am      10 UNK        -0.4204 
     60 CA         34.2553    1.2471  -10.1250 C.3       10 UNK         0.0237 
     61 CB         35.5119    0.6545  -10.7847 C.3       10 UNK        -0.1985 
     62 C          34.4637    1.3904   -8.6037 C.2       10 UNK         0.4970 
     63 O          35.1814    2.2996   -8.1847 O.2       10 UNK        -0.4914 
     64 N          33.8283    0.5187   -7.8091 N.am      11 UNK        -0.4285 
     65 CA         33.6971    0.6565   -6.3512 C.3       11 UNK         0.1007 
     66 C          32.8267    1.8734   -5.9092 C.2       11 UNK         0.5703 
     67 N          32.0117    2.4562   -6.7802 N.am      11 UNK        -0.7361 
     68 O          32.8975    2.3015   -4.7601 O.2       11 UNK        -0.4986 
     69 C69        33.1924   -0.6711   -5.7211 C.3       12 UNK        -0.0947 
     70 S70        33.6974   -0.8769   -3.9780 S.3       12 UNK        -0.2240 
     71 C71        34.1152   -2.6473   -3.9026 C.3       12 UNK         0.0194 
     72 H72        22.6228   -3.8432   -3.2537 H         1 UNK         0.0906 
     73 H73        23.8592   -5.1036   -3.2862 H         1 UNK         0.0906 
     74 H74        22.8172   -4.9251   -1.8732 H         1 UNK         0.0906 
     75 H75        25.9233   -4.3435   -2.8489 H         1 UNK         0.3140 
     76 H76        26.7092   -2.8301   -0.6687 H         1 UNK         0.1085 
     77 H77        28.1805   -3.1977   -3.3265 H         1 UNK         0.0836 
     78 H78        28.9072   -2.5949   -1.8579 H         1 UNK         0.0836 
     79 H79        30.5363   -4.2281   -0.7535 H         1 UNK         0.0731 
     80 H80        30.5932   -5.9213   -1.1799 H         1 UNK         0.0731 
     81 H81        32.5188   -3.4355   -1.8402 H         1 UNK         0.1312 
     82 H82        32.9363   -3.7700   -6.0950 H         1 UNK         0.1406 
     83 H83        29.6950   -5.7380   -4.1081 H         1 UNK         0.1631 
     84 H84        29.9567   -6.0291   -6.4582 H         1 UNK         0.0717 
     85 H85        31.5085   -5.6834   -7.1835 H         1 UNK         0.0717 
     86 H86        28.0762   -4.0363   -6.0760 H         1 UNK         0.0934 
     87 H87        29.2645   -2.9867   -5.3543 H         1 UNK         0.0934 
     88 H88        27.8997   -2.0559   -7.8949 H         1 UNK         0.0739 
     89 H89        26.3218   -2.7957   -5.8054 H         1 UNK         0.3093 
     90 H90        23.5753   -1.0046   -6.8897 H         1 UNK         0.0818 
     91 H91        22.8960   -3.0912   -5.7773 H         1 UNK         0.0819 
     92 H92        24.1966   -3.4364   -6.8986 H         1 UNK         0.0819 
     93 H93        24.5217   -3.3640   -5.1672 H         1 UNK         0.0819 
     94 H94        24.7155   -0.6441   -4.1877 H         1 UNK         0.3041 
     95 H95        22.2736    1.4411   -3.2530 H         1 UNK         0.0784 
     96 H96        20.4525   -0.2034   -2.9526 H         1 UNK         0.0793 
     97 H97        21.5705   -1.3766   -2.2722 H         1 UNK         0.0793 
     98 H98        21.2174    0.1182   -1.4067 H         1 UNK         0.0793 
     99 H99        23.8678   -0.5718   -1.7723 H         1 UNK         0.3024 
    100 H100       26.7198    1.5092   -1.6030 H         1 UNK         0.1171 
    101 H101       25.3151    2.5889    0.1496 H         1 UNK         0.0786 
    102 H102       26.4223    1.4196    0.8465 H         1 UNK         0.0786 
    103 H103       24.7154    1.0153    0.6547 H         1 UNK         0.0786 
    104 H104       26.1251   -0.8443   -0.1862 H         1 UNK         0.2977 
    105 H105       27.7537   -0.3464   -4.8012 H         1 UNK         0.3127 
    106 H106       30.1084    1.2268   -5.0886 H         1 UNK         0.0770 
    107 H107       27.5077    1.8912   -3.6414 H         1 UNK         0.0814 
    108 H108       29.0750    2.6284   -3.3392 H         1 UNK         0.0814 
    109 H109       28.8262    0.9323   -2.9495 H         1 UNK         0.0814 
    110 H110       27.0555    1.4363   -6.7598 H         1 UNK         0.2983 
    111 H111       27.7761    4.1237   -7.8919 H         1 UNK         0.0947 
    112 H112       25.3531    4.3058   -8.4404 H         1 UNK         0.0806 
    113 H113       25.5864    4.1375   -6.7073 H         1 UNK         0.0806 
    114 H114       25.0361    2.7607   -7.6601 H         1 UNK         0.0806 
    115 H115       26.6830    0.7845   -8.5697 H         1 UNK         0.3000 
    116 H116       26.4981    1.1549  -11.3993 H         1 UNK         0.0850 
    117 H117       26.0316   -1.2827  -11.4005 H         1 UNK         0.0810 
    118 H118       25.1298   -0.4862  -10.1214 H         1 UNK         0.0810 
    119 H119       26.5761   -1.4167   -9.7360 H         1 UNK         0.0810 
    120 H120       29.3041    0.3915   -9.4148 H         1 UNK         0.3040 
    121 H121       30.8763   -0.2872  -11.8537 H         1 UNK         0.0766 
    122 H122       31.9738   -2.1064  -10.6089 H         1 UNK         0.0812 
    123 H123       30.2467   -2.3880  -10.5223 H         1 UNK         0.0812 
    124 H124       31.0959   -1.7030   -9.1404 H         1 UNK         0.0812 
    125 H125       33.2809   -0.3640  -11.0873 H         1 UNK         0.3205 
    126 H126       34.1070    2.2552  -10.5176 H         1 UNK         0.0754 
    127 H127       36.3976    1.2427  -10.5396 H         1 UNK         0.0769 
    128 H128       35.4248    0.6457  -11.8715 H         1 UNK         0.0769 
    129 H129       35.6982   -0.3677  -10.4526 H         1 UNK         0.0769 
    130 H130       33.2509   -0.1855   -8.2411 H         1 UNK         0.2981 
    131 H131       34.7036    0.8460   -5.9730 H         1 UNK         0.0541 
    132 H132       31.9145    2.1071   -7.7292 H         1 UNK         0.3459 
    133 H133       31.3986    3.1961   -6.4654 H         1 UNK         0.3459 
    134 H134       33.6001   -1.5121   -6.2825 H         1 UNK         0.0612 
    135 H135       32.1065   -0.7621   -5.7960 H         1 UNK         0.0612 
    136 H136       34.6560   -2.8388   -2.9747 H         1 UNK         0.0624 
    137 H137       34.8024   -2.9003   -4.7114 H         1 UNK         0.0624 
@<TRIPOS>BOND
     1    1    2 1    
     2    1   72 1    
     3    1   73 1    
     4    1   74 1    
     5    2    3 2    
     6    2    4 am   BACKBONE|DICT|INTERRES
     7    4    5 1    
     8    4   75 1    
     9    5    6 1    
    10    5   35 1    
    11    5   76 1    
    12    6    7 1    
    13    6   77 1    
    14    6   78 1    
    15    7    8 1    
    16    8    9 1    
    17    8   79 1    
    18    8   80 1    
    19    9   10 ar   
    20    9   14 ar   
    21   10   11 ar   
    22   10   81 1    
    23   11   12 ar   
    24   11   71 1    
    25   12   13 ar   
    26   12   82 1    
    27   13   14 ar   
    28   13   15 1    
    29   14   83 1    
    30   15   16 1    
    31   15   84 1    
    32   15   85 1    
    33   16   17 1    
    34   17   18 1    
    35   17   86 1    
    36   17   87 1    
    37   18   19 1    
    38   18   37 1    
    39   18   88 1    
    40   19   20 am   BACKBONE|DICT|INTERRES
    41   19   89 1    
    42   20   21 2    
    43   20   22 1    
    44   22   23 1    
    45   22   24 1    
    46   22   90 1    
    47   23   91 1    
    48   23   92 1    
    49   23   93 1    
    50   24   25 am   BACKBONE|DICT|INTERRES
    51   24   94 1    
    52   25   26 2    
    53   25   27 1    
    54   27   28 1    
    55   27   29 1    
    56   27   95 1    
    57   28   96 1    
    58   28   97 1    
    59   28   98 1    
    60   29   30 am   BACKBONE|DICT|INTERRES
    61   29   99 1    
    62   30   31 2    
    63   30   32 1    
    64   32   33 1    
    65   32   34 1    
    66   32  100 1    
    67   33  101 1    
    68   33  102 1    
    69   33  103 1    
    70   34   35 am   BACKBONE|DICT|INTERRES
    71   34  104 1    
    72   35   36 2    
    73   37   38 2    
    74   37   39 am   BACKBONE|DICT|INTERRES
    75   39   40 1    
    76   39  105 1    
    77   40   41 1    
    78   40   42 1    
    79   40  106 1    
    80   41  107 1    
    81   41  108 1    
    82   41  109 1    
    83   42   43 2    
    84   42   44 am   BACKBONE|DICT|INTERRES
    85   44   45 1    
    86   44  110 1    
    87   45   46 1    
    88   45   47 1    
    89   45  111 1    
    90   46  112 1    
    91   46  113 1    
    92   46  114 1    
    93   47   48 2    
    94   47   49 am   BACKBONE|DICT|INTERRES
    95   49   50 1    
    96   49  115 1    
    97   50   51 1    
    98   50   52 1    
    99   50  116 1    
   100   51  117 1    
   101   51  118 1    
   102   51  119 1    
   103   52   53 2    
   104   52   54 am   BACKBONE|DICT|INTERRES
   105   54   55 1    
   106   54  120 1    
   107   55   56 1    
   108   55   57 1    
   109   55  121 1    
   110   56  122 1    
   111   56  123 1    
   112   56  124 1    
   113   57   58 2    
   114   57   59 am   BACKBONE|DICT|INTERRES
   115   59   60 1    
   116   59  125 1    
   117   60   61 1    
   118   60   62 1    
   119   60  126 1    
   120   61  127 1    
   121   61  128 1    
   122   61  129 1    
   123   62   63 2    
   124   62   64 am   BACKBONE|DICT|INTERRES
   125   64   65 1    
   126   64  130 1    
   127   65   66 1    
   128   65   69 1    
   129   65  131 1    
   130   66   67 am   BACKBONE|DICT|INTERRES
   131   66   68 2    
   132   67  132 1    
   133   67  133 1    
   134   69   70 1    
   135   69  134 1    
   136   69  135 1    
   137   70   71 1    
   138   71  136 1    
   139   71  137 1    
@<TRIPOS>SUBSTRUCTURE
     1 UNK         1 GROUP             0       ****    0 ROOT    
