@<TRIPOS>MOLECULE
3R137
137   139    1
SMALL
USER_CHARGES


@<TRIPOS>ATOM
      1 CA         26.8702   -5.5592   -3.7128 C.3       0 UNK        -0.2020 
      2 C          25.8256   -5.7458   -2.6165 C.2       0 UNK         0.4855 
      3 O          24.8594   -6.4721   -2.8388 O.2       0 UNK        -0.5197 
      4 N          25.9525   -5.1531   -1.4194 N.am      1 UNK        -0.4892 
      5 CA         26.9393   -4.1776   -0.9380 C.3       1 UNK         0.0835 
      6 C6         28.4210   -4.6215   -1.0843 C.3       12 UNK        -0.0855 
      7 S7         29.4743   -3.8713    0.2070 S.3       12 UNK        -0.2931 
      8 C8         31.1161   -3.8387   -0.5886 C.3       12 UNK         0.0378 
      9 C9         31.1278   -3.0019   -1.8603 C.ar      12 UNK        -0.0802 
     10 C10        31.3940   -3.6014   -3.0938 C.ar      12 UNK        -0.0944 
     11 C11        31.3605   -2.8566   -4.2758 C.ar      12 UNK        -0.0787 
     12 C12        31.0369   -1.4927   -4.2108 C.ar      12 UNK        -0.0862 
     13 C13        30.7820   -0.8766   -2.9811 C.ar      12 UNK        -0.0733 
     14 C14        30.8489   -1.6344   -1.8083 C.ar      12 UNK        -0.0832 
     15 C15        30.4099    0.5993   -2.9157 C.3       12 UNK         0.0240 
     16 S16        28.7533    0.8129   -2.1892 S.3       12 UNK        -0.2522 
     17 C17        27.9880    2.1190   -3.2083 C.3       12 UNK        -0.0967 
     18 CA         27.8134    1.7761   -4.7140 C.3       5 UNK         0.0660 
     19 N          27.4647    0.3769   -4.9669 N.am      5 UNK        -0.4015 
     20 C          27.5132   -0.2164   -6.1676 C.2       4 UNK         0.4946 
     21 O          27.9157    0.3362   -7.1929 O.2       4 UNK        -0.5353 
     22 CA         26.9876   -1.6576   -6.2446 C.3       4 UNK         0.0277 
     23 CB         28.1067   -2.6652   -5.9501 C.3       4 UNK        -0.1981 
     24 N          25.8618   -1.8850   -5.3348 N.am      4 UNK        -0.4209 
     25 C          24.6303   -1.3944   -5.5428 C.2       3 UNK         0.4942 
     26 O          24.3189   -0.7326   -6.5317 O.2       3 UNK        -0.5208 
     27 CA         23.5756   -1.6429   -4.4507 C.3       3 UNK         0.0250 
     28 CB         22.8944   -3.0043   -4.6621 C.3       3 UNK        -0.1990 
     29 N          24.1148   -1.5745   -3.0915 N.am      3 UNK        -0.4232 
     30 C          24.7204   -0.5061   -2.5538 C.2       2 UNK         0.4993 
     31 O          24.8518    0.5712   -3.1346 O.2       2 UNK        -0.5286 
     32 CA         25.3198   -0.6787   -1.1481 C.3       2 UNK         0.0209 
     33 CB         24.3323   -0.1774   -0.0827 C.3       2 UNK        -0.1931 
     34 N          25.7358   -2.0499   -0.8210 N.am      2 UNK        -0.4546 
     35 C          26.6326   -2.7769   -1.5064 C.2       1 UNK         0.5154 
     36 O          27.1416   -2.4045   -2.5650 O.2       1 UNK        -0.5181 
     37 C          26.7860    2.7169   -5.3722 C.2       5 UNK         0.5014 
     38 O          27.1801    3.6646   -6.0513 O.2       5 UNK        -0.5248 
     39 N          25.4910    2.4118   -5.1923 N.am      6 UNK        -0.4434 
     40 CA         24.3594    3.1226   -5.7952 C.3       6 UNK         0.0363 
     41 CB         23.0446    2.5760   -5.2171 C.3       6 UNK        -0.1936 
     42 C          24.3470    3.0494   -7.3318 C.2       6 UNK         0.5081 
     43 O          24.0347    4.0471   -7.9818 O.2       6 UNK        -0.5248 
     44 N          24.7198    1.8872   -7.8863 N.am      7 UNK        -0.4718 
     45 CA         24.9095    1.6716   -9.3246 C.3       7 UNK         0.0273 
     46 CB         24.9445    0.1599   -9.6035 C.3       7 UNK        -0.1935 
     47 C          26.1757    2.3431   -9.8918 C.2       7 UNK         0.5018 
     48 O          26.2968    2.4358  -11.1141 O.2       7 UNK        -0.5186 
     49 N          27.0896    2.7774   -9.0097 N.am      8 UNK        -0.4240 
     50 CA         28.4057    3.3595   -9.2903 C.3       8 UNK         0.0235 
     51 CB         28.2664    4.7373   -9.9724 C.3       8 UNK        -0.2000 
     52 C          29.3206    2.3864  -10.0571 C.2       8 UNK         0.4941 
     53 O          29.9499    2.7751  -11.0442 O.2       8 UNK        -0.5273 
     54 N          29.3607    1.1280   -9.5970 N.am      9 UNK        -0.4262 
     55 CA         30.1941    0.0644  -10.1581 C.3       9 UNK         0.0264 
     56 CB         29.7697   -1.2758   -9.5392 C.3       9 UNK        -0.1955 
     57 C          31.6929    0.3240   -9.9237 C.2       9 UNK         0.5031 
     58 O          32.0700    0.8835   -8.8895 O.2       9 UNK        -0.5390 
     59 N          32.5279   -0.1171  -10.8736 N.am      10 UNK        -0.4204 
     60 CA         33.9874    0.0350  -10.8645 C.3       10 UNK         0.0237 
     61 CB         34.5062   -0.0565  -12.3126 C.3       10 UNK        -0.1985 
     62 C          34.6766   -0.9728   -9.9215 C.2       10 UNK         0.4970 
     63 O          35.5106   -1.7662  -10.3619 O.2       10 UNK        -0.4914 
     64 N          34.2968   -0.9318   -8.6415 N.am      11 UNK        -0.4285 
     65 CA         34.7893   -1.8149   -7.5727 C.3       11 UNK         0.1007 
     66 C          36.2075   -1.4580   -7.0402 C.2       11 UNK         0.5703 
     67 N          36.7913   -0.3210   -7.4017 N.am      11 UNK        -0.7361 
     68 O          36.7953   -2.2353   -6.2916 O.2       11 UNK        -0.4986 
     69 C69        33.7639   -1.9134   -6.4142 C.3       12 UNK        -0.0947 
     70 S70        32.1407   -2.5203   -6.9849 S.3       12 UNK        -0.2240 
     71 C71        31.6356   -3.5841   -5.5936 C.3       12 UNK         0.0194 
     72 H72        27.1441   -4.5184   -3.8503 H         1 UNK         0.0906 
     73 H73        27.7682   -6.1320   -3.4846 H         1 UNK         0.0906 
     74 H74        26.4846   -5.9176   -4.6670 H         1 UNK         0.0906 
     75 H75        25.2238   -5.3499   -0.7465 H         1 UNK         0.3140 
     76 H76        26.7426   -4.1237    0.1346 H         1 UNK         0.1085 
     77 H77        28.8110   -4.3869   -2.0747 H         1 UNK         0.0836 
     78 H78        28.5026   -5.7039   -0.9745 H         1 UNK         0.0836 
     79 H79        31.4305   -4.8637   -0.7916 H         1 UNK         0.0731 
     80 H80        31.8423   -3.4282    0.1143 H         1 UNK         0.0731 
     81 H81        31.6129   -4.6598   -3.1371 H         1 UNK         0.1312 
     82 H82        30.9697   -0.9058   -5.1157 H         1 UNK         0.1406 
     83 H83        30.6359   -1.1681   -0.8559 H         1 UNK         0.1631 
     84 H84        30.4523    1.0480   -3.9078 H         1 UNK         0.0717 
     85 H85        31.1397    1.1324   -2.3052 H         1 UNK         0.0717 
     86 H86        27.0212    2.3287   -2.7454 H         1 UNK         0.0934 
     87 H87        28.5715    3.0350   -3.0986 H         1 UNK         0.0934 
     88 H88        28.7694    1.9569   -5.2094 H         1 UNK         0.0739 
     89 H89        27.1430   -0.1539   -4.1692 H         1 UNK         0.3093 
     90 H90        26.6446   -1.8268   -7.2676 H         1 UNK         0.0818 
     91 H91        28.4569   -2.5915   -4.9201 H         1 UNK         0.0819 
     92 H92        27.7747   -3.6886   -6.1222 H         1 UNK         0.0819 
     93 H93        28.9649   -2.4924   -6.5994 H         1 UNK         0.0819 
     94 H94        26.0681   -2.3472   -4.4570 H         1 UNK         0.3041 
     95 H95        22.8181   -0.8619   -4.5427 H         1 UNK         0.0784 
     96 H96        23.5958   -3.8318   -4.5448 H         1 UNK         0.0793 
     97 H97        22.4701   -3.0761   -5.6647 H         1 UNK         0.0793 
     98 H98        22.0775   -3.1537   -3.9558 H         1 UNK         0.0793 
     99 H99        24.0529   -2.4126   -2.5326 H         1 UNK         0.3024 
    100 H100       26.2107   -0.0506   -1.1055 H         1 UNK         0.1171 
    101 H101       24.7820   -0.1830    0.9104 H         1 UNK         0.0786 
    102 H102       24.0238    0.8488   -0.2890 H         1 UNK         0.0786 
    103 H103       23.4294   -0.7883   -0.0481 H         1 UNK         0.0786 
    104 H104       25.3393   -2.4429    0.0208 H         1 UNK         0.2977 
    105 H105       25.2589    1.6435   -4.5633 H         1 UNK         0.3127 
    106 H106       24.4455    4.1745   -5.5152 H         1 UNK         0.0770 
    107 H107       22.9099    1.5198   -5.4525 H         1 UNK         0.0814 
    108 H108       22.1863    3.1136   -5.6223 H         1 UNK         0.0814 
    109 H109       23.0129    2.6829   -4.1326 H         1 UNK         0.0814 
    110 H110       24.8757    1.0847   -7.2837 H         1 UNK         0.2983 
    111 H111       24.0530    2.0983   -9.8511 H         1 UNK         0.0947 
    112 H112       25.0494   -0.0409  -10.6705 H         1 UNK         0.0806 
    113 H113       24.0270   -0.3267   -9.2721 H         1 UNK         0.0806 
    114 H114       25.7819   -0.3213   -9.0971 H         1 UNK         0.0806 
    115 H115       26.8845    2.6448   -8.0271 H         1 UNK         0.3000 
    116 H116       28.8799    3.5192   -8.3206 H         1 UNK         0.0850 
    117 H117       29.2384    5.2213  -10.0744 H         1 UNK         0.0810 
    118 H118       27.6320    5.4044   -9.3887 H         1 UNK         0.0810 
    119 H119       27.8383    4.6552  -10.9718 H         1 UNK         0.0810 
    120 H120       28.8309    0.8950   -8.7588 H         1 UNK         0.3040 
    121 H121       30.0091    0.0260  -11.2337 H         1 UNK         0.0766 
    122 H122       28.7262   -1.5026   -9.7586 H         1 UNK         0.0812 
    123 H123       29.8854   -1.2627   -8.4556 H         1 UNK         0.0812 
    124 H124       30.3720   -2.1002   -9.9232 H         1 UNK         0.0812 
    125 H125       32.1380   -0.6058  -11.6671 H         1 UNK         0.3205 
    126 H126       34.2285    1.0334  -10.4929 H         1 UNK         0.0754 
    127 H127       34.0517    0.7059  -12.9457 H         1 UNK         0.0769 
    128 H128       34.2977   -1.0307  -12.7571 H         1 UNK         0.0769 
    129 H129       35.5857    0.0961  -12.3521 H         1 UNK         0.0769 
    130 H130       33.5739   -0.2663   -8.3840 H         1 UNK         0.2981 
    131 H131       34.8860   -2.8148   -8.0002 H         1 UNK         0.0541 
    132 H132       36.3183    0.3234   -8.0142 H         1 UNK         0.3459 
    133 H133       37.7122   -0.1059   -7.0535 H         1 UNK         0.3459 
    134 H134       33.6214   -0.9400   -5.9418 H         1 UNK         0.0612 
    135 H135       34.1331   -2.5826   -5.6347 H         1 UNK         0.0612 
    136 H136       32.4081   -4.3403   -5.4456 H         1 UNK         0.0624 
    137 H137       30.7330   -4.1224   -5.8840 H         1 UNK         0.0624 
@<TRIPOS>BOND
     1    1    2 1    
     2    1   72 1    
     3    1   73 1    
     4    1   74 1    
     5    2    3 2    
     6    2    4 am   BACKBONE|DICT|INTERRES
     7    4    5 1    
     8    4   75 1    
     9    5    6 1    
    10    5   35 1    
    11    5   76 1    
    12    6    7 1    
    13    6   77 1    
    14    6   78 1    
    15    7    8 1    
    16    8    9 1    
    17    8   79 1    
    18    8   80 1    
    19    9   10 ar   
    20    9   14 ar   
    21   10   11 ar   
    22   10   81 1    
    23   11   12 ar   
    24   11   71 1    
    25   12   13 ar   
    26   12   82 1    
    27   13   14 ar   
    28   13   15 1    
    29   14   83 1    
    30   15   16 1    
    31   15   84 1    
    32   15   85 1    
    33   16   17 1    
    34   17   18 1    
    35   17   86 1    
    36   17   87 1    
    37   18   19 1    
    38   18   37 1    
    39   18   88 1    
    40   19   20 am   BACKBONE|DICT|INTERRES
    41   19   89 1    
    42   20   21 2    
    43   20   22 1    
    44   22   23 1    
    45   22   24 1    
    46   22   90 1    
    47   23   91 1    
    48   23   92 1    
    49   23   93 1    
    50   24   25 am   BACKBONE|DICT|INTERRES
    51   24   94 1    
    52   25   26 2    
    53   25   27 1    
    54   27   28 1    
    55   27   29 1    
    56   27   95 1    
    57   28   96 1    
    58   28   97 1    
    59   28   98 1    
    60   29   30 am   BACKBONE|DICT|INTERRES
    61   29   99 1    
    62   30   31 2    
    63   30   32 1    
    64   32   33 1    
    65   32   34 1    
    66   32  100 1    
    67   33  101 1    
    68   33  102 1    
    69   33  103 1    
    70   34   35 am   BACKBONE|DICT|INTERRES
    71   34  104 1    
    72   35   36 2    
    73   37   38 2    
    74   37   39 am   BACKBONE|DICT|INTERRES
    75   39   40 1    
    76   39  105 1    
    77   40   41 1    
    78   40   42 1    
    79   40  106 1    
    80   41  107 1    
    81   41  108 1    
    82   41  109 1    
    83   42   43 2    
    84   42   44 am   BACKBONE|DICT|INTERRES
    85   44   45 1    
    86   44  110 1    
    87   45   46 1    
    88   45   47 1    
    89   45  111 1    
    90   46  112 1    
    91   46  113 1    
    92   46  114 1    
    93   47   48 2    
    94   47   49 am   BACKBONE|DICT|INTERRES
    95   49   50 1    
    96   49  115 1    
    97   50   51 1    
    98   50   52 1    
    99   50  116 1    
   100   51  117 1    
   101   51  118 1    
   102   51  119 1    
   103   52   53 2    
   104   52   54 am   BACKBONE|DICT|INTERRES
   105   54   55 1    
   106   54  120 1    
   107   55   56 1    
   108   55   57 1    
   109   55  121 1    
   110   56  122 1    
   111   56  123 1    
   112   56  124 1    
   113   57   58 2    
   114   57   59 am   BACKBONE|DICT|INTERRES
   115   59   60 1    
   116   59  125 1    
   117   60   61 1    
   118   60   62 1    
   119   60  126 1    
   120   61  127 1    
   121   61  128 1    
   122   61  129 1    
   123   62   63 2    
   124   62   64 am   BACKBONE|DICT|INTERRES
   125   64   65 1    
   126   64  130 1    
   127   65   66 1    
   128   65   69 1    
   129   65  131 1    
   130   66   67 am   BACKBONE|DICT|INTERRES
   131   66   68 2    
   132   67  132 1    
   133   67  133 1    
   134   69   70 1    
   135   69  134 1    
   136   69  135 1    
   137   70   71 1    
   138   71  136 1    
   139   71  137 1    
@<TRIPOS>SUBSTRUCTURE
     1 UNK         1 GROUP             0       ****    0 ROOT    
