@<TRIPOS>MOLECULE
3R137
137   139    1
SMALL
USER_CHARGES


@<TRIPOS>ATOM
      1 CA         29.2192   -8.4939   -5.1272 C.3       0 UNK        -0.2020 
      2 C          28.3202   -7.8059   -4.1105 C.2       0 UNK         0.4855 
      3 O          27.3372   -8.3976   -3.6630 O.2       0 UNK        -0.5197 
      4 N          28.6528   -6.5644   -3.7354 N.am      1 UNK        -0.4892 
      5 CA         27.8604   -5.7301   -2.8283 C.3       1 UNK         0.0835 
      6 C6         28.7044   -4.5482   -2.2872 C.3       12 UNK        -0.0855 
      7 S7         27.8540   -3.5848   -0.9895 S.3       12 UNK        -0.2931 
      8 C8         29.2567   -2.8134   -0.1312 C.3       12 UNK         0.0378 
      9 C9         29.8175   -1.6270   -0.9023 C.ar      12 UNK        -0.0802 
     10 C10        30.8801   -1.7997   -1.7938 C.ar      12 UNK        -0.0944 
     11 C11        31.4612   -0.7044   -2.4420 C.ar      12 UNK        -0.0787 
     12 C12        30.9637    0.5789   -2.1769 C.ar      12 UNK        -0.0862 
     13 C13        29.8895    0.7655   -1.2997 C.ar      12 UNK        -0.0733 
     14 C14        29.3131   -0.3439   -0.6754 C.ar      12 UNK        -0.0832 
     15 C15        29.3957    2.1671   -0.9628 C.3       12 UNK         0.0240 
     16 S16        28.0990    2.7478   -2.1013 S.3       12 UNK        -0.2522 
     17 C17        29.0905    3.2764   -3.5456 C.3       12 UNK        -0.0967 
     18 CA         28.6736    2.6042   -4.8780 C.3       5 UNK         0.0660 
     19 N          28.4602    1.1621   -4.7335 N.am      5 UNK        -0.4015 
     20 C          28.3167    0.2930   -5.7403 C.2       4 UNK         0.4946 
     21 O          28.4610    0.5978   -6.9240 O.2       4 UNK        -0.5353 
     22 CA         27.9004   -1.1459   -5.3807 C.3       4 UNK         0.0277 
     23 CB         29.1268   -2.0686   -5.3350 C.3       4 UNK        -0.1981 
     24 N          27.1390   -1.2928   -4.1321 N.am      4 UNK        -0.4209 
     25 C          26.0058   -0.6447   -3.8246 C.2       3 UNK         0.4942 
     26 O          25.5119    0.2360   -4.5287 O.2       3 UNK        -0.5208 
     27 CA         25.3200   -1.0645   -2.5130 C.3       3 UNK         0.0250 
     28 CB         24.0782   -0.2096   -2.1809 C.3       3 UNK        -0.1990 
     29 N          24.9958   -2.4964   -2.5076 N.am      3 UNK        -0.4232 
     30 C          24.2025   -3.1649   -3.3629 C.2       2 UNK         0.4993 
     31 O          23.5452   -2.6347   -4.2600 O.2       2 UNK        -0.5286 
     32 CA         24.1474   -4.6960   -3.1738 C.3       2 UNK         0.0209 
     33 CB         23.5389   -5.4371   -4.3849 C.3       2 UNK        -0.1931 
     34 N          25.4530   -5.2647   -2.8066 N.am      2 UNK        -0.4546 
     35 C          26.5807   -5.2352   -3.5350 C.2       1 UNK         0.5154 
     36 O          26.6579   -4.7908   -4.6827 O.2       1 UNK        -0.5181 
     37 C          27.4890    3.3520   -5.5314 C.2       5 UNK         0.5014 
     38 O          27.7228    4.4058   -6.1244 O.2       5 UNK        -0.5248 
     39 N          26.2590    2.8187   -5.4437 N.am      6 UNK        -0.4434 
     40 CA         25.0809    3.3817   -6.1130 C.3       6 UNK         0.0363 
     41 CB         23.7956    2.8286   -5.4769 C.3       6 UNK        -0.1936 
     42 C          25.1004    3.1120   -7.6267 C.2       6 UNK         0.5081 
     43 O          24.6704    3.9685   -8.3996 O.2       6 UNK        -0.5248 
     44 N          25.6260    1.9439   -8.0243 N.am      7 UNK        -0.4718 
     45 CA         25.9223    1.6057   -9.4196 C.3       7 UNK         0.0273 
     46 CB         26.0376    0.0795   -9.5594 C.3       7 UNK        -0.1935 
     47 C          27.2062    2.2934   -9.9171 C.2       7 UNK         0.5018 
     48 O          27.3316    2.5505  -11.1150 O.2       7 UNK        -0.5186 
     49 N          28.1364    2.5599   -8.9885 N.am      8 UNK        -0.4240 
     50 CA         29.4415    3.2148   -9.1222 C.3       8 UNK         0.0235 
     51 CB         29.3262    4.6290   -9.7226 C.3       8 UNK        -0.2000 
     52 C          30.4686    2.3554   -9.8682 C.2       8 UNK         0.4941 
     53 O          31.5357    2.0819   -9.3195 O.2       8 UNK        -0.5273 
     54 N          30.1155    1.9011  -11.0768 N.am      9 UNK        -0.4262 
     55 CA         30.9304    1.0316  -11.9304 C.3       9 UNK         0.0264 
     56 CB         30.2563    0.9030  -13.3058 C.3       9 UNK        -0.1955 
     57 C          31.1956   -0.3605  -11.3279 C.2       9 UNK         0.5031 
     58 O          32.1992   -0.9834  -11.6768 O.2       9 UNK        -0.5390 
     59 N          30.3035   -0.8199  -10.4385 N.am      10 UNK        -0.4204 
     60 CA         30.4463   -2.0689   -9.6907 C.3       10 UNK         0.0237 
     61 CB         29.0918   -2.4585   -9.0772 C.3       10 UNK        -0.1985 
     62 C          31.5383   -1.9891   -8.6095 C.2       10 UNK         0.4970 
     63 O          32.2635   -2.9667   -8.4232 O.2       10 UNK        -0.4914 
     64 N          31.6345   -0.8428   -7.9207 N.am      11 UNK        -0.4285 
     65 CA         32.6791   -0.5697   -6.9238 C.3       11 UNK         0.1007 
     66 C          33.9983   -0.0751   -7.5806 C.2       11 UNK         0.5703 
     67 N          33.9415    0.7993   -8.5774 N.am      11 UNK        -0.7361 
     68 O          35.0832   -0.5089   -7.2002 O.2       11 UNK        -0.4986 
     69 C69        32.1597    0.3817   -5.8121 C.3       12 UNK        -0.0947 
     70 S70        33.2527    0.4522   -4.3532 S.3       12 UNK        -0.2240 
     71 C71        32.6591   -0.9645   -3.3606 C.3       12 UNK         0.0194 
     72 H72        28.6490   -8.7473   -6.0206 H         1 UNK         0.0906 
     73 H73        30.0555   -7.8624   -5.4268 H         1 UNK         0.0906 
     74 H74        29.6234   -9.4151   -4.7082 H         1 UNK         0.0906 
     75 H75        29.4506   -6.1160   -4.1627 H         1 UNK         0.3140 
     76 H76        27.5704   -6.3540   -1.9793 H         1 UNK         0.1085 
     77 H77        28.9983   -3.8742   -3.0912 H         1 UNK         0.0836 
     78 H78        29.6337   -4.9371   -1.8677 H         1 UNK         0.0836 
     79 H79        30.0359   -3.5545    0.0536 H         1 UNK         0.0731 
     80 H80        28.9213   -2.4841    0.8535 H         1 UNK         0.0731 
     81 H81        31.2765   -2.7917   -1.9632 H         1 UNK         0.1312 
     82 H82        31.4289    1.4417   -2.6273 H         1 UNK         0.1406 
     83 H83        28.4966   -0.2046    0.0206 H         1 UNK         0.1631 
     84 H84        30.2276    2.8732   -0.9568 H         1 UNK         0.0717 
     85 H85        28.9918    2.1797    0.0507 H         1 UNK         0.0717 
     86 H86        29.0400    4.3651   -3.6182 H         1 UNK         0.0934 
     87 H87        30.1432    3.0700   -3.3625 H         1 UNK         0.0934 
     88 H88        29.5105    2.7219   -5.5702 H         1 UNK         0.0739 
     89 H89        28.3244    0.8354   -3.7874 H         1 UNK         0.3093 
     90 H90        27.2506   -1.4892   -6.1882 H         1 UNK         0.0818 
     91 H91        28.8296   -3.1168   -5.3180 H         1 UNK         0.0819 
     92 H92        29.7472   -1.8730   -4.4614 H         1 UNK         0.0819 
     93 H93        29.7563   -1.9362   -6.2124 H         1 UNK         0.0819 
     94 H94        27.4627   -2.0044   -3.4933 H         1 UNK         0.3041 
     95 H95        26.0497   -0.9052   -1.7171 H         1 UNK         0.0784 
     96 H96        24.3445    0.8451   -2.0993 H         1 UNK         0.0793 
     97 H97        23.3100   -0.2893   -2.9508 H         1 UNK         0.0793 
     98 H98        23.6341   -0.5069   -1.2312 H         1 UNK         0.0793 
     99 H99        25.5028   -3.0452   -1.8253 H         1 UNK         0.3024 
    100 H100       23.4850   -4.8658   -2.3230 H         1 UNK         0.1171 
    101 H101       23.5124   -6.5140   -4.2190 H         1 UNK         0.0786 
    102 H102       22.5133   -5.1128   -4.5657 H         1 UNK         0.0786 
    103 H103       24.1020   -5.2522   -5.3002 H         1 UNK         0.0786 
    104 H104       25.5067   -5.6481   -1.8721 H         1 UNK         0.2977 
    105 H105       26.1222    1.9298   -4.9648 H         1 UNK         0.3127 
    106 H106       25.0878    4.4640   -5.9659 H         1 UNK         0.0770 
    107 H107       23.6836    1.7578   -5.6502 H         1 UNK         0.0814 
    108 H108       22.9153    3.3170   -5.8965 H         1 UNK         0.0814 
    109 H109       23.7793    2.9973   -4.4001 H         1 UNK         0.0814 
    110 H110       25.9458    1.2966   -7.3172 H         1 UNK         0.2983 
    111 H111       25.0987    1.9478  -10.0505 H         1 UNK         0.0947 
    112 H112       26.2667   -0.2038  -10.5878 H         1 UNK         0.0806 
    113 H113       25.1038   -0.4135   -9.2890 H         1 UNK         0.0806 
    114 H114       26.8247   -0.3263   -8.9246 H         1 UNK         0.0806 
    115 H115       27.9701    2.1604   -8.0707 H         1 UNK         0.3000 
    116 H116       29.8132    3.3277   -8.1025 H         1 UNK         0.0850 
    117 H117       30.2952    5.1298   -9.7221 H         1 UNK         0.0810 
    118 H118       28.6418    5.2467   -9.1406 H         1 UNK         0.0810 
    119 H119       28.9707    4.6148  -10.7531 H         1 UNK         0.0810 
    120 H120       29.1912    2.1580  -11.4153 H         1 UNK         0.3040 
    121 H121       31.8998    1.5159  -12.0656 H         1 UNK         0.0766 
    122 H122       30.8496    0.2786  -13.9755 H         1 UNK         0.0812 
    123 H123       30.1455    1.8755  -13.7858 H         1 UNK         0.0812 
    124 H124       29.2662    0.4515  -13.2294 H         1 UNK         0.0812 
    125 H125       29.5045   -0.2422  -10.2249 H         1 UNK         0.3205 
    126 H126       30.7355   -2.8538  -10.3931 H         1 UNK         0.0754 
    127 H127       28.7216   -1.6927   -8.3967 H         1 UNK         0.0769 
    128 H128       29.1711   -3.3876   -8.5109 H         1 UNK         0.0769 
    129 H129       28.3371   -2.6138   -9.8484 H         1 UNK         0.0769 
    130 H130       31.0321   -0.0688   -8.1603 H         1 UNK         0.2981 
    131 H131       32.9153   -1.5161   -6.4336 H         1 UNK         0.0541 
    132 H132       33.0531    1.2004   -8.8718 H         1 UNK         0.3459 
    133 H133       34.7966    1.1084   -9.0097 H         1 UNK         0.3459 
    134 H134       31.1774    0.0597   -5.4702 H         1 UNK         0.0612 
    135 H135       32.0255    1.3925   -6.2014 H         1 UNK         0.0612 
    136 H136       33.4898   -1.2983   -2.7376 H         1 UNK         0.0624 
    137 H137       32.4295   -1.7937   -4.0312 H         1 UNK         0.0624 
@<TRIPOS>BOND
     1    1    2 1    
     2    1   72 1    
     3    1   73 1    
     4    1   74 1    
     5    2    3 2    
     6    2    4 am   BACKBONE|DICT|INTERRES
     7    4    5 1    
     8    4   75 1    
     9    5    6 1    
    10    5   35 1    
    11    5   76 1    
    12    6    7 1    
    13    6   77 1    
    14    6   78 1    
    15    7    8 1    
    16    8    9 1    
    17    8   79 1    
    18    8   80 1    
    19    9   10 ar   
    20    9   14 ar   
    21   10   11 ar   
    22   10   81 1    
    23   11   12 ar   
    24   11   71 1    
    25   12   13 ar   
    26   12   82 1    
    27   13   14 ar   
    28   13   15 1    
    29   14   83 1    
    30   15   16 1    
    31   15   84 1    
    32   15   85 1    
    33   16   17 1    
    34   17   18 1    
    35   17   86 1    
    36   17   87 1    
    37   18   19 1    
    38   18   37 1    
    39   18   88 1    
    40   19   20 am   BACKBONE|DICT|INTERRES
    41   19   89 1    
    42   20   21 2    
    43   20   22 1    
    44   22   23 1    
    45   22   24 1    
    46   22   90 1    
    47   23   91 1    
    48   23   92 1    
    49   23   93 1    
    50   24   25 am   BACKBONE|DICT|INTERRES
    51   24   94 1    
    52   25   26 2    
    53   25   27 1    
    54   27   28 1    
    55   27   29 1    
    56   27   95 1    
    57   28   96 1    
    58   28   97 1    
    59   28   98 1    
    60   29   30 am   BACKBONE|DICT|INTERRES
    61   29   99 1    
    62   30   31 2    
    63   30   32 1    
    64   32   33 1    
    65   32   34 1    
    66   32  100 1    
    67   33  101 1    
    68   33  102 1    
    69   33  103 1    
    70   34   35 am   BACKBONE|DICT|INTERRES
    71   34  104 1    
    72   35   36 2    
    73   37   38 2    
    74   37   39 am   BACKBONE|DICT|INTERRES
    75   39   40 1    
    76   39  105 1    
    77   40   41 1    
    78   40   42 1    
    79   40  106 1    
    80   41  107 1    
    81   41  108 1    
    82   41  109 1    
    83   42   43 2    
    84   42   44 am   BACKBONE|DICT|INTERRES
    85   44   45 1    
    86   44  110 1    
    87   45   46 1    
    88   45   47 1    
    89   45  111 1    
    90   46  112 1    
    91   46  113 1    
    92   46  114 1    
    93   47   48 2    
    94   47   49 am   BACKBONE|DICT|INTERRES
    95   49   50 1    
    96   49  115 1    
    97   50   51 1    
    98   50   52 1    
    99   50  116 1    
   100   51  117 1    
   101   51  118 1    
   102   51  119 1    
   103   52   53 2    
   104   52   54 am   BACKBONE|DICT|INTERRES
   105   54   55 1    
   106   54  120 1    
   107   55   56 1    
   108   55   57 1    
   109   55  121 1    
   110   56  122 1    
   111   56  123 1    
   112   56  124 1    
   113   57   58 2    
   114   57   59 am   BACKBONE|DICT|INTERRES
   115   59   60 1    
   116   59  125 1    
   117   60   61 1    
   118   60   62 1    
   119   60  126 1    
   120   61  127 1    
   121   61  128 1    
   122   61  129 1    
   123   62   63 2    
   124   62   64 am   BACKBONE|DICT|INTERRES
   125   64   65 1    
   126   64  130 1    
   127   65   66 1    
   128   65   69 1    
   129   65  131 1    
   130   66   67 am   BACKBONE|DICT|INTERRES
   131   66   68 2    
   132   67  132 1    
   133   67  133 1    
   134   69   70 1    
   135   69  134 1    
   136   69  135 1    
   137   70   71 1    
   138   71  136 1    
   139   71  137 1    
@<TRIPOS>SUBSTRUCTURE
     1 UNK         1 GROUP             0       ****    0 ROOT    
