@<TRIPOS>MOLECULE
3R137
137   139    1
SMALL
USER_CHARGES


@<TRIPOS>ATOM
      1 CA         26.1345   -6.0052   -3.4648 C.3       0 UNK        -0.2020 
      2 C          26.1963   -5.4594   -2.0481 C.2       0 UNK         0.4855 
      3 O          25.2375   -5.6210   -1.2929 O.2       0 UNK        -0.5197 
      4 N          27.3134   -4.8167   -1.6785 N.am      1 UNK        -0.4892 
      5 CA         27.5307   -4.2430   -0.3415 C.3       1 UNK         0.0835 
      6 C6         29.0274   -3.9905   -0.0329 C.3       12 UNK        -0.0855 
      7 S7         30.0310   -5.5069   -0.2302 S.3       12 UNK        -0.2931 
      8 C8         31.5009   -4.9117   -1.1318 C.3       12 UNK         0.0378 
      9 C9         31.1522   -4.2137   -2.4401 C.ar      12 UNK        -0.0802 
     10 C10        31.4610   -2.8633   -2.6131 C.ar      12 UNK        -0.0944 
     11 C11        31.1365   -2.2031   -3.8004 C.ar      12 UNK        -0.0787 
     12 C12        30.4959   -2.9091   -4.8262 C.ar      12 UNK        -0.0862 
     13 C13        30.1762   -4.2662   -4.6665 C.ar      12 UNK        -0.0733 
     14 C14        30.5208   -4.9099   -3.4732 C.ar      12 UNK        -0.0832 
     15 C15        29.4940   -5.0927   -5.7573 C.3       12 UNK         0.0240 
     16 S16        28.4616   -4.1741   -6.9482 S.3       12 UNK        -0.2522 
     17 C17        27.2189   -3.3087   -5.9173 C.3       12 UNK        -0.0967 
     18 CA         26.6088   -2.1169   -6.6974 C.3       5 UNK         0.0660 
     19 N          25.3718   -1.5964   -6.1136 N.am      5 UNK        -0.4015 
     20 C          24.3819   -1.0677   -6.8521 C.2       4 UNK         0.4946 
     21 O          24.3535   -1.0941   -8.0833 O.2       4 UNK        -0.5353 
     22 CA         23.2352   -0.3630   -6.1063 C.3       4 UNK         0.0277 
     23 CB         22.1381   -1.3717   -5.7293 C.3       4 UNK        -0.1981 
     24 N          23.6675    0.3561   -4.9075 N.am      4 UNK        -0.4209 
     25 C          24.5568    1.3597   -4.8790 C.2       3 UNK         0.4942 
     26 O          25.0942    1.8380   -5.8787 O.2       3 UNK        -0.5208 
     27 CA         24.9484    1.8882   -3.4879 C.3       3 UNK         0.0250 
     28 CB         24.0417    3.0646   -3.0931 C.3       3 UNK        -0.1990 
     29 N          24.9335    0.8818   -2.4192 N.am      3 UNK        -0.4232 
     30 C          25.5652   -0.3019   -2.4232 C.2       2 UNK         0.4993 
     31 O          26.2239   -0.7406   -3.3749 O.2       2 UNK        -0.5286 
     32 CA         25.3670   -1.1512   -1.1628 C.3       2 UNK         0.0209 
     33 CB         23.9131   -1.6570   -1.0644 C.3       2 UNK        -0.1931 
     34 N          26.2744   -2.2935   -1.1818 N.am      2 UNK        -0.4546 
     35 C          26.6917   -2.9689   -0.1026 C.2       1 UNK         0.5154 
     36 O          26.4187   -2.6371    1.0525 O.2       1 UNK        -0.5181 
     37 C          27.6198   -0.9769   -6.8994 C.2       5 UNK         0.5014 
     38 O          28.2457   -0.9332   -7.9559 O.2       5 UNK        -0.5248 
     39 N          27.7580   -0.0676   -5.9207 N.am      6 UNK        -0.4434 
     40 CA         28.7421    1.0240   -5.9435 C.3       6 UNK         0.0363 
     41 CB         28.6206    1.8794   -4.6737 C.3       6 UNK        -0.1936 
     42 C          28.6764    1.9208   -7.1887 C.2       6 UNK         0.5081 
     43 O          29.7255    2.2615   -7.7365 O.2       6 UNK        -0.5248 
     44 N          27.4551    2.2500   -7.6287 N.am      7 UNK        -0.4718 
     45 CA         27.1963    3.0298   -8.8405 C.3       7 UNK         0.0273 
     46 CB         25.7332    3.5001   -8.8272 C.3       7 UNK        -0.1935 
     47 C          27.5020    2.2691  -10.1445 C.2       7 UNK         0.5018 
     48 O          27.8262    2.9089  -11.1452 O.2       7 UNK        -0.5186 
     49 N          27.3857    0.9345  -10.1208 N.am      8 UNK        -0.4240 
     50 CA         27.6345    0.0583  -11.2675 C.3       8 UNK         0.0235 
     51 CB         26.7560   -1.1992  -11.1516 C.3       8 UNK        -0.2000 
     52 C          29.1185   -0.3208  -11.3760 C.2       8 UNK         0.4941 
     53 O          29.6847   -0.2592  -12.4676 O.2       8 UNK        -0.5273 
     54 N          29.7209   -0.6968  -10.2406 N.am      9 UNK        -0.4262 
     55 CA         31.1286   -1.0755  -10.1088 C.3       9 UNK         0.0264 
     56 CB         31.3093   -1.8542   -8.7949 C.3       9 UNK        -0.1955 
     57 C          32.0903    0.1241  -10.1529 C.2       9 UNK         0.5031 
     58 O          33.2796   -0.0811  -10.3995 O.2       9 UNK        -0.5390 
     59 N          31.5665    1.3347   -9.9049 N.am      10 UNK        -0.4204 
     60 CA         32.2764    2.6119   -9.7916 C.3       10 UNK         0.0237 
     61 CB         32.9430    3.0093  -11.1267 C.3       10 UNK        -0.1985 
     62 C          33.2432    2.6097   -8.5943 C.2       10 UNK         0.4970 
     63 O          34.4310    2.8988   -8.7536 O.2       10 UNK        -0.4914 
     64 N          32.7063    2.2725   -7.4135 N.am      11 UNK        -0.4285 
     65 CA         33.4468    2.2586   -6.1397 C.3       11 UNK         0.1007 
     66 C          33.8624    3.6685   -5.6226 C.2       11 UNK         0.5703 
     67 N          33.2650    4.7564   -6.0964 N.am      11 UNK        -0.7361 
     68 O          34.7481    3.7749   -4.7775 O.2       11 UNK        -0.4986 
     69 C69        32.6895    1.4857   -5.0291 C.3       12 UNK        -0.0947 
     70 S70        32.4361   -0.2839   -5.3851 S.3       12 UNK        -0.2240 
     71 C71        31.4317   -0.7144   -3.9266 C.3       12 UNK         0.0194 
     72 H72        27.0324   -5.7651   -4.0284 H         1 UNK         0.0906 
     73 H73        26.0263   -7.0893   -3.4449 H         1 UNK         0.0906 
     74 H74        25.2776   -5.5868   -3.9921 H         1 UNK         0.0906 
     75 H75        28.0903   -4.7333   -2.3186 H         1 UNK         0.3140 
     76 H76        27.1736   -4.9762    0.3858 H         1 UNK         0.1085 
     77 H77        29.4140   -3.1899   -0.6643 H         1 UNK         0.0836 
     78 H78        29.1494   -3.6448    0.9955 H         1 UNK         0.0836 
     79 H79        32.0679   -4.2490   -0.4759 H         1 UNK         0.0731 
     80 H80        32.1526   -5.7604   -1.3441 H         1 UNK         0.0731 
     81 H81        31.9442   -2.3201   -1.8123 H         1 UNK         0.1312 
     82 H82        30.2470   -2.3944   -5.7438 H         1 UNK         0.1406 
     83 H83        30.2933   -5.9595   -3.3396 H         1 UNK         0.1631 
     84 H84        28.8839   -5.8781   -5.3122 H         1 UNK         0.0717 
     85 H85        30.2732   -5.6061   -6.3219 H         1 UNK         0.0717 
     86 H86        26.4352   -4.0259   -5.6729 H         1 UNK         0.0934 
     87 H87        27.6511   -2.9855   -4.9688 H         1 UNK         0.0934 
     88 H88        26.3684   -2.4963   -7.6937 H         1 UNK         0.0739 
     89 H89        25.3560   -1.4796   -5.1067 H         1 UNK         0.3093 
     90 H90        22.8055    0.3725   -6.7899 H         1 UNK         0.0818 
     91 H91        21.2747   -0.8736   -5.2876 H         1 UNK         0.0819 
     92 H92        21.7830   -1.9085   -6.6103 H         1 UNK         0.0819 
     93 H93        22.4981   -2.1160   -5.0177 H         1 UNK         0.0819 
     94 H94        23.2808    0.0452   -4.0287 H         1 UNK         0.3041 
     95 H95        25.9676    2.2628   -3.5491 H         1 UNK         0.0784 
     96 H96        24.0537    3.8410   -3.8598 H         1 UNK         0.0793 
     97 H97        23.0050    2.7513   -2.9631 H         1 UNK         0.0793 
     98 H98        24.3725    3.5280   -2.1633 H         1 UNK         0.0793 
     99 H99        24.4100    1.1339   -1.5928 H         1 UNK         0.3024 
    100 H100       25.5993   -0.5247   -0.2981 H         1 UNK         0.1171 
    101 H101       23.2007   -0.8322   -1.0278 H         1 UNK         0.0786 
    102 H102       23.7589   -2.2479   -0.1612 H         1 UNK         0.0786 
    103 H103       23.6478   -2.2832   -1.9175 H         1 UNK         0.0786 
    104 H104       26.5873   -2.5763   -2.1012 H         1 UNK         0.2977 
    105 H105       27.2125   -0.1768   -5.0718 H         1 UNK         0.3127 
    106 H106       29.7217    0.5492   -5.9560 H         1 UNK         0.0770 
    107 H107       27.7631    2.5477   -4.7300 H         1 UNK         0.0814 
    108 H108       29.4967    2.5151   -4.5487 H         1 UNK         0.0814 
    109 H109       28.5246    1.2714   -3.7740 H         1 UNK         0.0814 
    110 H110       26.6455    1.9574   -7.0862 H         1 UNK         0.2983 
    111 H111       27.8405    3.9117   -8.8194 H         1 UNK         0.0947 
    112 H112       25.5073    4.1060   -9.7058 H         1 UNK         0.0806 
    113 H113       25.5215    4.1103   -7.9489 H         1 UNK         0.0806 
    114 H114       25.0400    2.6575   -8.8218 H         1 UNK         0.0806 
    115 H115       27.1863    0.4825   -9.2373 H         1 UNK         0.3000 
    116 H116       27.3530    0.5797  -12.1852 H         1 UNK         0.0850 
    117 H117       26.9042   -1.8581  -12.0082 H         1 UNK         0.0810 
    118 H118       25.6974   -0.9405  -11.1201 H         1 UNK         0.0810 
    119 H119       26.9829   -1.7755  -10.2538 H         1 UNK         0.0810 
    120 H120       29.1602   -0.7520   -9.3875 H         1 UNK         0.3040 
    121 H121       31.3864   -1.7358  -10.9395 H         1 UNK         0.0766 
    122 H122       32.3441   -2.1732   -8.6637 H         1 UNK         0.0812 
    123 H123       30.6875   -2.7494   -8.7744 H         1 UNK         0.0812 
    124 H124       31.0433   -1.2454   -7.9301 H         1 UNK         0.0812 
    125 H125       30.5890    1.3685   -9.6438 H         1 UNK         0.3205 
    126 H126       31.5174    3.3645   -9.5722 H         1 UNK         0.0754 
    127 H127       33.3671    4.0123  -11.0650 H         1 UNK         0.0769 
    128 H128       32.2210    3.0121  -11.9434 H         1 UNK         0.0769 
    129 H129       33.7535    2.3324  -11.3982 H         1 UNK         0.0769 
    130 H130       31.7106    2.0832   -7.3701 H         1 UNK         0.2981 
    131 H131       34.3817    1.7254   -6.3230 H         1 UNK         0.0541 
    132 H132       32.5333    4.6808   -6.7839 H         1 UNK         0.3459 
    133 H133       33.5472    5.6618   -5.7555 H         1 UNK         0.3459 
    134 H134       31.7208    1.9503   -4.8459 H         1 UNK         0.0612 
    135 H135       33.2374    1.5425   -4.0863 H         1 UNK         0.0612 
    136 H136       31.9554   -0.3573   -3.0384 H         1 UNK         0.0624 
    137 H137       30.4865   -0.1764   -3.9515 H         1 UNK         0.0624 
@<TRIPOS>BOND
     1    1    2 1    
     2    1   72 1    
     3    1   73 1    
     4    1   74 1    
     5    2    3 2    
     6    2    4 am   BACKBONE|DICT|INTERRES
     7    4    5 1    
     8    4   75 1    
     9    5    6 1    
    10    5   35 1    
    11    5   76 1    
    12    6    7 1    
    13    6   77 1    
    14    6   78 1    
    15    7    8 1    
    16    8    9 1    
    17    8   79 1    
    18    8   80 1    
    19    9   10 ar   
    20    9   14 ar   
    21   10   11 ar   
    22   10   81 1    
    23   11   12 ar   
    24   11   71 1    
    25   12   13 ar   
    26   12   82 1    
    27   13   14 ar   
    28   13   15 1    
    29   14   83 1    
    30   15   16 1    
    31   15   84 1    
    32   15   85 1    
    33   16   17 1    
    34   17   18 1    
    35   17   86 1    
    36   17   87 1    
    37   18   19 1    
    38   18   37 1    
    39   18   88 1    
    40   19   20 am   BACKBONE|DICT|INTERRES
    41   19   89 1    
    42   20   21 2    
    43   20   22 1    
    44   22   23 1    
    45   22   24 1    
    46   22   90 1    
    47   23   91 1    
    48   23   92 1    
    49   23   93 1    
    50   24   25 am   BACKBONE|DICT|INTERRES
    51   24   94 1    
    52   25   26 2    
    53   25   27 1    
    54   27   28 1    
    55   27   29 1    
    56   27   95 1    
    57   28   96 1    
    58   28   97 1    
    59   28   98 1    
    60   29   30 am   BACKBONE|DICT|INTERRES
    61   29   99 1    
    62   30   31 2    
    63   30   32 1    
    64   32   33 1    
    65   32   34 1    
    66   32  100 1    
    67   33  101 1    
    68   33  102 1    
    69   33  103 1    
    70   34   35 am   BACKBONE|DICT|INTERRES
    71   34  104 1    
    72   35   36 2    
    73   37   38 2    
    74   37   39 am   BACKBONE|DICT|INTERRES
    75   39   40 1    
    76   39  105 1    
    77   40   41 1    
    78   40   42 1    
    79   40  106 1    
    80   41  107 1    
    81   41  108 1    
    82   41  109 1    
    83   42   43 2    
    84   42   44 am   BACKBONE|DICT|INTERRES
    85   44   45 1    
    86   44  110 1    
    87   45   46 1    
    88   45   47 1    
    89   45  111 1    
    90   46  112 1    
    91   46  113 1    
    92   46  114 1    
    93   47   48 2    
    94   47   49 am   BACKBONE|DICT|INTERRES
    95   49   50 1    
    96   49  115 1    
    97   50   51 1    
    98   50   52 1    
    99   50  116 1    
   100   51  117 1    
   101   51  118 1    
   102   51  119 1    
   103   52   53 2    
   104   52   54 am   BACKBONE|DICT|INTERRES
   105   54   55 1    
   106   54  120 1    
   107   55   56 1    
   108   55   57 1    
   109   55  121 1    
   110   56  122 1    
   111   56  123 1    
   112   56  124 1    
   113   57   58 2    
   114   57   59 am   BACKBONE|DICT|INTERRES
   115   59   60 1    
   116   59  125 1    
   117   60   61 1    
   118   60   62 1    
   119   60  126 1    
   120   61  127 1    
   121   61  128 1    
   122   61  129 1    
   123   62   63 2    
   124   62   64 am   BACKBONE|DICT|INTERRES
   125   64   65 1    
   126   64  130 1    
   127   65   66 1    
   128   65   69 1    
   129   65  131 1    
   130   66   67 am   BACKBONE|DICT|INTERRES
   131   66   68 2    
   132   67  132 1    
   133   67  133 1    
   134   69   70 1    
   135   69  134 1    
   136   69  135 1    
   137   70   71 1    
   138   71  136 1    
   139   71  137 1    
@<TRIPOS>SUBSTRUCTURE
     1 UNK         1 GROUP             0       ****    0 ROOT    
