@<TRIPOS>MOLECULE
3R137
137   139    1
SMALL
USER_CHARGES


@<TRIPOS>ATOM
      1 CA         27.5063   -5.9586   -6.5336 C.3       0 UNK        -0.2020 
      2 C          27.3413   -5.5019   -5.0922 C.2       0 UNK         0.4855 
      3 O          26.2204   -5.4771   -4.5834 O.2       0 UNK        -0.5197 
      4 N          28.4486   -5.1249   -4.4384 N.am      1 UNK        -0.4892 
      5 CA         28.5158   -4.6223   -3.0604 C.3       1 UNK         0.0835 
      6 C6         29.9873   -4.3630   -2.6525 C.3       12 UNK        -0.0855 
      7 S7         30.1919   -4.1377   -0.8545 S.3       12 UNK        -0.2931 
      8 C8         31.6719   -3.0746   -0.7895 C.3       12 UNK         0.0378 
      9 C9         31.4185   -1.6718   -1.3297 C.ar      12 UNK        -0.0802 
     10 C10        32.1294   -1.2004   -2.4382 C.ar      12 UNK        -0.0944 
     11 C11        31.9244    0.0982   -2.9164 C.ar      12 UNK        -0.0787 
     12 C12        31.0031    0.9281   -2.2700 C.ar      12 UNK        -0.0862 
     13 C13        30.2815    0.4698   -1.1620 C.ar      12 UNK        -0.0733 
     14 C14        30.4983   -0.8309   -0.6972 C.ar      12 UNK        -0.0832 
     15 C15        29.2842    1.3703   -0.4359 C.3       12 UNK         0.0240 
     16 S16        28.2051    2.3431   -1.5414 S.3       12 UNK        -0.2522 
     17 C17        27.4436    1.0479   -2.5746 C.3       12 UNK        -0.0967 
     18 CA         27.6676    1.3161   -4.0863 C.3       5 UNK         0.0660 
     19 N          27.7500    0.0747   -4.8579 N.am      5 UNK        -0.4015 
     20 C          28.0198   -0.0158   -6.1679 C.2       4 UNK         0.4946 
     21 O          28.3330    0.9425   -6.8712 O.2       4 UNK        -0.5353 
     22 CA         27.8435   -1.3979   -6.8155 C.3       4 UNK         0.0277 
     23 CB         29.1100   -2.2492   -6.6552 C.3       4 UNK        -0.1981 
     24 N          26.6827   -2.1071   -6.2742 N.am      4 UNK        -0.4209 
     25 C          25.4106   -1.7525   -6.5088 C.2       3 UNK         0.4942 
     26 O          25.0837   -0.8412   -7.2677 O.2       3 UNK        -0.5208 
     27 CA         24.3213   -2.5051   -5.7275 C.3       3 UNK         0.0250 
     28 CB         23.8817   -3.7711   -6.4791 C.3       3 UNK        -0.1990 
     29 N          24.7498   -2.8483   -4.3685 N.am      3 UNK        -0.4232 
     30 C          24.9129   -1.9412   -3.3928 C.2       2 UNK         0.4993 
     31 O          24.6742   -0.7416   -3.5340 O.2       2 UNK        -0.5286 
     32 CA         25.4923   -2.4371   -2.0548 C.3       2 UNK         0.0209 
     33 CB         24.3675   -2.9189   -1.1256 C.3       2 UNK        -0.1931 
     34 N          26.4942   -3.4984   -2.2060 N.am      2 UNK        -0.4546 
     35 C          27.6380   -3.3644   -2.8916 C.2       1 UNK         0.5154 
     36 O          27.9746   -2.3163   -3.4418 O.2       1 UNK        -0.5181 
     37 C          26.5940    2.2702   -4.6504 C.2       5 UNK         0.5014 
     38 O          26.8815    3.4486   -4.8636 O.2       5 UNK        -0.5248 
     39 N          25.3901    1.7351   -4.9089 N.am      6 UNK        -0.4434 
     40 CA         24.2655    2.4562   -5.5109 C.3       6 UNK         0.0363 
     41 CB         23.0028    1.5818   -5.4572 C.3       6 UNK        -0.1936 
     42 C          24.5446    2.9247   -6.9501 C.2       6 UNK         0.5081 
     43 O          24.1952    4.0545   -7.2933 O.2       6 UNK        -0.5248 
     44 N          25.1779    2.0643   -7.7603 N.am      7 UNK        -0.4718 
     45 CA         25.6130    2.3805   -9.1255 C.3       7 UNK         0.0273 
     46 CB         25.9734    1.0757   -9.8545 C.3       7 UNK        -0.1935 
     47 C          26.8024    3.3574   -9.1788 C.2       7 UNK         0.5018 
     48 O          26.9566    4.0584  -10.1796 O.2       7 UNK        -0.5186 
     49 N          27.6214    3.3598   -8.1173 N.am      8 UNK        -0.4240 
     50 CA         28.9022    4.0542   -7.9564 C.3       8 UNK         0.0235 
     51 CB         28.7153    5.5863   -7.9753 C.3       8 UNK        -0.2000 
     52 C          29.9659    3.5524   -8.9532 C.2       8 UNK         0.4941 
     53 O          30.7742    4.3466   -9.4392 O.2       8 UNK        -0.5273 
     54 N          29.9448    2.2458   -9.2468 N.am      9 UNK        -0.4262 
     55 CA         30.8011    1.5743  -10.2216 C.3       9 UNK         0.0264 
     56 CB         30.3851    1.9645  -11.6551 C.3       9 UNK        -0.1955 
     57 C          30.6865    0.0579  -10.0321 C.2       9 UNK         0.5031 
     58 O          29.6871   -0.4113   -9.4861 O.2       9 UNK        -0.5390 
     59 N          31.6949   -0.6738  -10.5283 N.am      10 UNK        -0.4204 
     60 CA         31.8050   -2.1410  -10.5372 C.3       10 UNK         0.0237 
     61 CB         30.6889   -2.7761  -11.3964 C.3       10 UNK        -0.1985 
     62 C          31.9133   -2.7721   -9.1330 C.2       10 UNK         0.4970 
     63 O          31.4378   -3.8902   -8.9246 O.2       10 UNK        -0.4914 
     64 N          32.5536   -2.0548   -8.2008 N.am      11 UNK        -0.4285 
     65 CA         32.8832   -2.5312   -6.8492 C.3       11 UNK         0.1007 
     66 C          33.9028   -3.7043   -6.8656 C.2       11 UNK         0.5703 
     67 N          33.8098   -4.6211   -5.9118 N.am      11 UNK        -0.7361 
     68 O          34.7993   -3.7668   -7.7058 O.2       11 UNK        -0.4986 
     69 C69        33.4032   -1.3751   -5.9585 C.3       12 UNK        -0.0947 
     70 S70        32.1572   -0.0695   -5.6877 S.3       12 UNK        -0.2240 
     71 C71        32.7208    0.6283   -4.1025 C.3       12 UNK         0.0194 
     72 H72        28.5550   -6.0397   -6.8193 H         1 UNK         0.0906 
     73 H73        27.0421   -6.9346   -6.6728 H         1 UNK         0.0906 
     74 H74        27.0252   -5.2526   -7.2100 H         1 UNK         0.0906 
     75 H75        29.3331   -5.1636   -4.9240 H         1 UNK         0.3140 
     76 H76        28.1191   -5.4109   -2.4171 H         1 UNK         0.1085 
     77 H77        30.3903   -3.5023   -3.1902 H         1 UNK         0.0836 
     78 H78        30.6095   -5.2128   -2.9380 H         1 UNK         0.0836 
     79 H79        32.4838   -3.5624   -1.3315 H         1 UNK         0.0731 
     80 H80        32.0019   -2.9969    0.2474 H         1 UNK         0.0731 
     81 H81        32.8515   -1.8424   -2.9207 H         1 UNK         0.1312 
     82 H82        30.8493    1.9370   -2.6274 H         1 UNK         0.1406 
     83 H83        29.9540   -1.1951    0.1638 H         1 UNK         0.1631 
     84 H84        29.8380    2.0577    0.2046 H         1 UNK         0.0717 
     85 H85        28.6467    0.7800    0.2244 H         1 UNK         0.0717 
     86 H86        27.8738    0.0855   -2.2967 H         1 UNK         0.0934 
     87 H87        26.3846    0.9693   -2.3218 H         1 UNK         0.0934 
     88 H88        28.6376    1.8010   -4.2171 H         1 UNK         0.0739 
     89 H89        27.6181   -0.7916   -4.3393 H         1 UNK         0.3093 
     90 H90        27.6764   -1.2441   -7.8835 H         1 UNK         0.0818 
     91 H91        29.3567   -2.4401   -5.6117 H         1 UNK         0.0819 
     92 H92        29.0194   -3.2055   -7.1698 H         1 UNK         0.0819 
     93 H93        29.9594   -1.7274   -7.0939 H         1 UNK         0.0819 
     94 H94        26.8653   -2.8193   -5.5830 H         1 UNK         0.3041 
     95 H95        23.4549   -1.8444   -5.6514 H         1 UNK         0.0784 
     96 H96        23.5133   -3.5222   -7.4753 H         1 UNK         0.0793 
     97 H97        24.7015   -4.4781   -6.6038 H         1 UNK         0.0793 
     98 H98        23.0750   -4.2833   -5.9544 H         1 UNK         0.0793 
     99 H99        25.0198   -3.8124   -4.1987 H         1 UNK         0.3024 
    100 H100       25.9849   -1.5852   -1.5812 H         1 UNK         0.1171 
    101 H101       24.7518   -3.1809   -0.1395 H         1 UNK         0.0786 
    102 H102       23.6191   -2.1380   -0.9823 H         1 UNK         0.0786 
    103 H103       23.8542   -3.7922   -1.5302 H         1 UNK         0.0786 
    104 H104       26.2619   -4.4011   -1.8167 H         1 UNK         0.2977 
    105 H105       25.2175    0.7707   -4.6354 H         1 UNK         0.3127 
    106 H106       24.0863    3.3465   -4.9043 H         1 UNK         0.0770 
    107 H107       23.1207    0.6658   -6.0365 H         1 UNK         0.0814 
    108 H108       22.1419    2.1153   -5.8622 H         1 UNK         0.0814 
    109 H109       22.7581    1.3000   -4.4329 H         1 UNK         0.0814 
    110 H110       25.3604    1.1208   -7.4289 H         1 UNK         0.2983 
    111 H111       24.7778    2.8492   -9.6505 H         1 UNK         0.0947 
    112 H112       26.2686    1.2720  -10.8862 H         1 UNK         0.0806 
    113 H113       25.1271    0.3891   -9.8831 H         1 UNK         0.0806 
    114 H114       26.8052    0.5615   -9.3709 H         1 UNK         0.0806 
    115 H115       27.4344    2.6669   -7.3991 H         1 UNK         0.3000 
    116 H116       29.2654    3.7788   -6.9650 H         1 UNK         0.0850 
    117 H117       29.6430    6.0953   -7.7112 H         1 UNK         0.0810 
    118 H118       27.9579    5.9001   -7.2569 H         1 UNK         0.0810 
    119 H119       28.4164    5.9472   -8.9597 H         1 UNK         0.0810 
    120 H120       29.3029    1.6295   -8.7530 H         1 UNK         0.3040 
    121 H121       31.8360    1.8719  -10.0410 H         1 UNK         0.0766 
    122 H122       30.5121    3.0319  -11.8351 H         1 UNK         0.0812 
    123 H123       29.3402    1.7170  -11.8477 H         1 UNK         0.0812 
    124 H124       30.9871    1.4422  -12.3995 H         1 UNK         0.0812 
    125 H125       32.4642   -0.1822  -10.9634 H         1 UNK         0.3205 
    126 H126       32.7531   -2.3645  -11.0286 H         1 UNK         0.0754 
    127 H127       30.8618   -3.8438  -11.5371 H         1 UNK         0.0769 
    128 H128       30.6440   -2.3238  -12.3871 H         1 UNK         0.0769 
    129 H129       29.7082   -2.6659  -10.9322 H         1 UNK         0.0769 
    130 H130       32.9172   -1.1484   -8.4503 H         1 UNK         0.2981 
    131 H131       31.9616   -2.9113   -6.4051 H         1 UNK         0.0541 
    132 H132       33.0907   -4.5744   -5.2082 H         1 UNK         0.3459 
    133 H133       34.4733   -5.3799   -5.8990 H         1 UNK         0.3459 
    134 H134       33.7166   -1.7629   -4.9891 H         1 UNK         0.0612 
    135 H135       34.2900   -0.9174   -6.4009 H         1 UNK         0.0612 
    136 H136       33.7829    0.4276   -3.9554 H         1 UNK         0.0624 
    137 H137       32.6295    1.7139   -4.1615 H         1 UNK         0.0624 
@<TRIPOS>BOND
     1    1    2 1    
     2    1   72 1    
     3    1   73 1    
     4    1   74 1    
     5    2    3 2    
     6    2    4 am   BACKBONE|DICT|INTERRES
     7    4    5 1    
     8    4   75 1    
     9    5    6 1    
    10    5   35 1    
    11    5   76 1    
    12    6    7 1    
    13    6   77 1    
    14    6   78 1    
    15    7    8 1    
    16    8    9 1    
    17    8   79 1    
    18    8   80 1    
    19    9   10 ar   
    20    9   14 ar   
    21   10   11 ar   
    22   10   81 1    
    23   11   12 ar   
    24   11   71 1    
    25   12   13 ar   
    26   12   82 1    
    27   13   14 ar   
    28   13   15 1    
    29   14   83 1    
    30   15   16 1    
    31   15   84 1    
    32   15   85 1    
    33   16   17 1    
    34   17   18 1    
    35   17   86 1    
    36   17   87 1    
    37   18   19 1    
    38   18   37 1    
    39   18   88 1    
    40   19   20 am   BACKBONE|DICT|INTERRES
    41   19   89 1    
    42   20   21 2    
    43   20   22 1    
    44   22   23 1    
    45   22   24 1    
    46   22   90 1    
    47   23   91 1    
    48   23   92 1    
    49   23   93 1    
    50   24   25 am   BACKBONE|DICT|INTERRES
    51   24   94 1    
    52   25   26 2    
    53   25   27 1    
    54   27   28 1    
    55   27   29 1    
    56   27   95 1    
    57   28   96 1    
    58   28   97 1    
    59   28   98 1    
    60   29   30 am   BACKBONE|DICT|INTERRES
    61   29   99 1    
    62   30   31 2    
    63   30   32 1    
    64   32   33 1    
    65   32   34 1    
    66   32  100 1    
    67   33  101 1    
    68   33  102 1    
    69   33  103 1    
    70   34   35 am   BACKBONE|DICT|INTERRES
    71   34  104 1    
    72   35   36 2    
    73   37   38 2    
    74   37   39 am   BACKBONE|DICT|INTERRES
    75   39   40 1    
    76   39  105 1    
    77   40   41 1    
    78   40   42 1    
    79   40  106 1    
    80   41  107 1    
    81   41  108 1    
    82   41  109 1    
    83   42   43 2    
    84   42   44 am   BACKBONE|DICT|INTERRES
    85   44   45 1    
    86   44  110 1    
    87   45   46 1    
    88   45   47 1    
    89   45  111 1    
    90   46  112 1    
    91   46  113 1    
    92   46  114 1    
    93   47   48 2    
    94   47   49 am   BACKBONE|DICT|INTERRES
    95   49   50 1    
    96   49  115 1    
    97   50   51 1    
    98   50   52 1    
    99   50  116 1    
   100   51  117 1    
   101   51  118 1    
   102   51  119 1    
   103   52   53 2    
   104   52   54 am   BACKBONE|DICT|INTERRES
   105   54   55 1    
   106   54  120 1    
   107   55   56 1    
   108   55   57 1    
   109   55  121 1    
   110   56  122 1    
   111   56  123 1    
   112   56  124 1    
   113   57   58 2    
   114   57   59 am   BACKBONE|DICT|INTERRES
   115   59   60 1    
   116   59  125 1    
   117   60   61 1    
   118   60   62 1    
   119   60  126 1    
   120   61  127 1    
   121   61  128 1    
   122   61  129 1    
   123   62   63 2    
   124   62   64 am   BACKBONE|DICT|INTERRES
   125   64   65 1    
   126   64  130 1    
   127   65   66 1    
   128   65   69 1    
   129   65  131 1    
   130   66   67 am   BACKBONE|DICT|INTERRES
   131   66   68 2    
   132   67  132 1    
   133   67  133 1    
   134   69   70 1    
   135   69  134 1    
   136   69  135 1    
   137   70   71 1    
   138   71  136 1    
   139   71  137 1    
@<TRIPOS>SUBSTRUCTURE
     1 UNK         1 GROUP             0       ****    0 ROOT    
