@<TRIPOS>MOLECULE
3R137
137   139    1
SMALL
USER_CHARGES


@<TRIPOS>ATOM
      1 CA         26.1071   -3.6540    1.6137 C.3       0 UNK        -0.2020 
      2 C          26.3311   -3.5383    0.1141 C.2       0 UNK         0.4855 
      3 O          25.5420   -2.8867   -0.5679 O.2       0 UNK        -0.5197 
      4 N          27.3888   -4.1841   -0.4000 N.am      1 UNK        -0.4892 
      5 CA         27.8504   -4.1635   -1.7994 C.3       1 UNK         0.0835 
      6 C6         29.1078   -5.0605   -1.9559 C.3       12 UNK        -0.0855 
      7 S7         30.1208   -4.7071   -3.4332 S.3       12 UNK        -0.2931 
      8 C8         31.5344   -3.7689   -2.7575 C.3       12 UNK         0.0378 
      9 C9         31.2372   -2.2779   -2.6770 C.ar      12 UNK        -0.0802 
     10 C10        31.7101   -1.4050   -3.6632 C.ar      12 UNK        -0.0944 
     11 C11        31.4179   -0.0355   -3.6072 C.ar      12 UNK        -0.0787 
     12 C12        30.6383    0.4513   -2.5552 C.ar      12 UNK        -0.0862 
     13 C13        30.1173   -0.4203   -1.5956 C.ar      12 UNK        -0.0733 
     14 C14        30.4585   -1.7734   -1.6340 C.ar      12 UNK        -0.0832 
     15 C15        29.1108    0.0752   -0.5722 C.3       12 UNK         0.0240 
     16 S16        27.4176   -0.0625   -1.2401 S.3       12 UNK        -0.2522 
     17 C17        27.3156    1.4021   -2.3216 C.3       12 UNK        -0.0967 
     18 CA         27.4927    1.0972   -3.8369 C.3       5 UNK         0.0660 
     19 N          26.4130    0.2540   -4.3578 N.am      5 UNK        -0.4015 
     20 C          26.3850   -0.3529   -5.5538 C.2       4 UNK         0.4946 
     21 O          27.2809   -0.2466   -6.3941 O.2       4 UNK        -0.5353 
     22 CA         25.1623   -1.2359   -5.8627 C.3       4 UNK         0.0277 
     23 CB         25.4903   -2.3666   -6.8567 C.3       4 UNK        -0.1981 
     24 N          24.6169   -1.8392   -4.6455 N.am      4 UNK        -0.4209 
     25 C          23.4361   -1.5372   -4.0871 C.2       3 UNK         0.4942 
     26 O          22.6935   -0.6518   -4.5143 O.2       3 UNK        -0.5208 
     27 CA         23.0192   -2.3304   -2.8295 C.3       3 UNK         0.0250 
     28 CB         21.4900   -2.5095   -2.7147 C.3       3 UNK        -0.1990 
     29 N          23.7195   -3.6122   -2.6797 N.am      3 UNK        -0.4232 
     30 C          23.6614   -4.6831   -3.4900 C.2       2 UNK         0.4993 
     31 O          22.8945   -4.7716   -4.4502 O.2       2 UNK        -0.5286 
     32 CA         24.6417   -5.8422   -3.1937 C.3       2 UNK         0.0209 
     33 CB         25.0317   -6.6188   -4.4701 C.3       2 UNK        -0.1931 
     34 N          25.8498   -5.4343   -2.4583 N.am      2 UNK        -0.4546 
     35 C          26.7507   -4.5084   -2.8288 C.2       1 UNK         0.5154 
     36 O          26.6864   -3.8773   -3.8848 O.2       1 UNK        -0.5181 
     37 C          27.6471    2.4117   -4.6349 C.2       5 UNK         0.5014 
     38 O          27.1647    3.4542   -4.1856 O.2       5 UNK        -0.5248 
     39 N          28.3252    2.3564   -5.7858 N.am      6 UNK        -0.4434 
     40 CA         28.6639    3.5083   -6.6152 C.3       6 UNK         0.0363 
     41 CB         27.4225    4.0060   -7.3840 C.3       6 UNK        -0.1936 
     42 C          29.7907    3.1442   -7.5869 C.2       6 UNK         0.5081 
     43 O          30.0035    1.9635   -7.8875 O.2       6 UNK        -0.5248 
     44 N          30.4625    4.1836   -8.0973 N.am      7 UNK        -0.4718 
     45 CA         31.3645    4.1041   -9.2460 C.3       7 UNK         0.0273 
     46 CB         32.1424    5.4222   -9.3796 C.3       7 UNK        -0.1935 
     47 C          30.5592    3.8113  -10.5220 C.2       7 UNK         0.5018 
     48 O          29.4605    4.3479  -10.6804 O.2       7 UNK        -0.5186 
     49 N          31.1061    2.9375  -11.3765 N.am      8 UNK        -0.4240 
     50 CA         30.4689    2.3268  -12.5550 C.3       8 UNK         0.0235 
     51 CB         30.0355    3.3882  -13.5894 C.3       8 UNK        -0.2000 
     52 C          29.3311    1.3347  -12.2191 C.2       8 UNK         0.4941 
     53 O          28.6958    0.8224  -13.1423 O.2       8 UNK        -0.5273 
     54 N          29.1217    1.0468  -10.9275 N.am      9 UNK        -0.4262 
     55 CA         28.2741   -0.0230  -10.4108 C.3       9 UNK         0.0264 
     56 CB         27.2054    0.5774   -9.4812 C.3       9 UNK        -0.1955 
     57 C          29.2184   -1.0401   -9.7509 C.2       9 UNK         0.5031 
     58 O          30.0620   -1.5894  -10.4639 O.2       9 UNK        -0.5390 
     59 N          29.1301   -1.2594   -8.4286 N.am      10 UNK        -0.4204 
     60 CA         30.0341   -2.1589   -7.6954 C.3       10 UNK         0.0237 
     61 CB         29.5725   -2.3065   -6.2404 C.3       10 UNK        -0.1985 
     62 C          31.5170   -1.7421   -7.7371 C.2       10 UNK         0.4970 
     63 O          32.3819   -2.6175   -7.6857 O.2       10 UNK        -0.4914 
     64 N          31.7794   -0.4345   -7.8534 N.am      11 UNK        -0.4285 
     65 CA         33.1153    0.1468   -8.0547 C.3       11 UNK         0.1007 
     66 C          33.3502    0.5792   -9.5320 C.2       11 UNK         0.5703 
     67 N          32.5746    0.1039  -10.5014 N.am      11 UNK        -0.7361 
     68 O          34.2575    1.3553   -9.8193 O.2       11 UNK        -0.4986 
     69 C69        33.4052    1.2787   -7.0291 C.3       12 UNK        -0.0947 
     70 S70        33.5304    0.6353   -5.3268 S.3       12 UNK        -0.2240 
     71 C71        31.8334    0.9130   -4.7273 C.3       12 UNK         0.0194 
     72 H72        26.8666   -4.2689    2.0961 H         1 UNK         0.0906 
     73 H73        26.1310   -2.6650    2.0707 H         1 UNK         0.0906 
     74 H74        25.1324   -4.0980    1.8141 H         1 UNK         0.0906 
     75 H75        27.9687   -4.7183    0.2318 H         1 UNK         0.3140 
     76 H76        28.1276   -3.1297   -2.0100 H         1 UNK         0.1085 
     77 H77        28.8238   -6.1145   -1.9808 H         1 UNK         0.0836 
     78 H78        29.7502   -4.9610   -1.0800 H         1 UNK         0.0836 
     79 H79        32.3972   -3.9383   -3.4036 H         1 UNK         0.0731 
     80 H80        31.8172   -4.1534   -1.7767 H         1 UNK         0.0731 
     81 H81        32.2841   -1.7977   -4.4914 H         1 UNK         0.1312 
     82 H82        30.3740    1.4991   -2.5239 H         1 UNK         0.1406 
     83 H83        30.0701   -2.4443   -0.8808 H         1 UNK         0.1631 
     84 H84        29.3254    1.1036   -0.2781 H         1 UNK         0.0717 
     85 H85        29.1791   -0.5227    0.3379 H         1 UNK         0.0717 
     86 H86        26.3479    1.8759   -2.1444 H         1 UNK         0.0934 
     87 H87        28.0565    2.1293   -1.9844 H         1 UNK         0.0934 
     88 H88        28.4148    0.5318   -3.9699 H         1 UNK         0.0739 
     89 H89        25.6321    0.1076   -3.7367 H         1 UNK         0.3093 
     90 H90        24.4232   -0.5841   -6.3323 H         1 UNK         0.0818 
     91 H91        26.2445   -3.0454   -6.4587 H         1 UNK         0.0819 
     92 H92        24.6031   -2.9571   -7.0858 H         1 UNK         0.0819 
     93 H93        25.8677   -1.9761   -7.8007 H         1 UNK         0.0819 
     94 H94        25.1913   -2.5667   -4.2273 H         1 UNK         0.3041 
     95 H95        23.3395   -1.7230   -1.9816 H         1 UNK         0.0784 
     96 H96        20.9862   -1.5440   -2.6560 H         1 UNK         0.0793 
     97 H97        21.0769   -3.0371   -3.5747 H         1 UNK         0.0793 
     98 H98        21.2221   -3.0671   -1.8173 H         1 UNK         0.0793 
     99 H99        24.4066   -3.6176   -1.9285 H         1 UNK         0.3024 
    100 H100       24.0992   -6.5283   -2.5411 H         1 UNK         0.1171 
    101 H101       25.7131   -7.4387   -4.2437 H         1 UNK         0.0786 
    102 H102       24.1541   -7.0537   -4.9501 H         1 UNK         0.0786 
    103 H103       25.5159   -5.9727   -5.2033 H         1 UNK         0.0786 
    104 H104       25.9738   -5.8588   -1.5492 H         1 UNK         0.2977 
    105 H105       28.6243    1.4572   -6.1493 H         1 UNK         0.3127 
    106 H106       29.0293    4.3065   -5.9653 H         1 UNK         0.0770 
    107 H107       26.9812    3.2186   -7.9939 H         1 UNK         0.0814 
    108 H108       27.6740    4.8300   -8.0530 H         1 UNK         0.0814 
    109 H109       26.6512    4.3711   -6.7062 H         1 UNK         0.0814 
    110 H110       30.1921    5.1140   -7.8127 H         1 UNK         0.2983 
    111 H111       32.0755    3.2948   -9.0721 H         1 UNK         0.0947 
    112 H112       32.8431    5.3782  -10.2145 H         1 UNK         0.0806 
    113 H113       32.7234    5.6330   -8.4815 H         1 UNK         0.0806 
    114 H114       31.4773    6.2686   -9.5569 H         1 UNK         0.0806 
    115 H115       32.0211    2.5705  -11.1510 H         1 UNK         0.3000 
    116 H116       31.2471    1.7235  -13.0245 H         1 UNK         0.0850 
    117 H117       29.7405    2.9182  -14.5283 H         1 UNK         0.0810 
    118 H118       30.8479    4.0785  -13.8158 H         1 UNK         0.0810 
    119 H119       29.1827    3.9726  -13.2434 H         1 UNK         0.0810 
    120 H120       29.6975    1.5090  -10.2368 H         1 UNK         0.3040 
    121 H121       27.7650   -0.5417  -11.2255 H         1 UNK         0.0766 
    122 H122       26.5295   -0.1912   -9.1091 H         1 UNK         0.0812 
    123 H123       26.5946    1.3083  -10.0110 H         1 UNK         0.0812 
    124 H124       27.6452    1.0814   -8.6230 H         1 UNK         0.0812 
    125 H125       28.4255   -0.7764   -7.8744 H         1 UNK         0.3205 
    126 H126       29.9653   -3.1412   -8.1674 H         1 UNK         0.0754 
    127 H127       29.5781   -1.3530   -5.7122 H         1 UNK         0.0769 
    128 H128       30.2353   -2.9795   -5.6989 H         1 UNK         0.0769 
    129 H129       28.5692   -2.7249   -6.1743 H         1 UNK         0.0769 
    130 H130       31.0094    0.2258   -7.8949 H         1 UNK         0.2981 
    131 H131       33.8708   -0.6226   -7.8885 H         1 UNK         0.0541 
    132 H132       31.8368   -0.5636  -10.3066 H         1 UNK         0.3459 
    133 H133       32.7963    0.3323  -11.4562 H         1 UNK         0.3459 
    134 H134       34.3569    1.7655   -7.2480 H         1 UNK         0.0612 
    135 H135       32.6470    2.0606   -7.0759 H         1 UNK         0.0612 
    136 H136       31.1243    0.7885   -5.5448 H         1 UNK         0.0624 
    137 H137       31.7518    1.9528   -4.4073 H         1 UNK         0.0624 
@<TRIPOS>BOND
     1    1    2 1    
     2    1   72 1    
     3    1   73 1    
     4    1   74 1    
     5    2    3 2    
     6    2    4 am   BACKBONE|DICT|INTERRES
     7    4    5 1    
     8    4   75 1    
     9    5    6 1    
    10    5   35 1    
    11    5   76 1    
    12    6    7 1    
    13    6   77 1    
    14    6   78 1    
    15    7    8 1    
    16    8    9 1    
    17    8   79 1    
    18    8   80 1    
    19    9   10 ar   
    20    9   14 ar   
    21   10   11 ar   
    22   10   81 1    
    23   11   12 ar   
    24   11   71 1    
    25   12   13 ar   
    26   12   82 1    
    27   13   14 ar   
    28   13   15 1    
    29   14   83 1    
    30   15   16 1    
    31   15   84 1    
    32   15   85 1    
    33   16   17 1    
    34   17   18 1    
    35   17   86 1    
    36   17   87 1    
    37   18   19 1    
    38   18   37 1    
    39   18   88 1    
    40   19   20 am   BACKBONE|DICT|INTERRES
    41   19   89 1    
    42   20   21 2    
    43   20   22 1    
    44   22   23 1    
    45   22   24 1    
    46   22   90 1    
    47   23   91 1    
    48   23   92 1    
    49   23   93 1    
    50   24   25 am   BACKBONE|DICT|INTERRES
    51   24   94 1    
    52   25   26 2    
    53   25   27 1    
    54   27   28 1    
    55   27   29 1    
    56   27   95 1    
    57   28   96 1    
    58   28   97 1    
    59   28   98 1    
    60   29   30 am   BACKBONE|DICT|INTERRES
    61   29   99 1    
    62   30   31 2    
    63   30   32 1    
    64   32   33 1    
    65   32   34 1    
    66   32  100 1    
    67   33  101 1    
    68   33  102 1    
    69   33  103 1    
    70   34   35 am   BACKBONE|DICT|INTERRES
    71   34  104 1    
    72   35   36 2    
    73   37   38 2    
    74   37   39 am   BACKBONE|DICT|INTERRES
    75   39   40 1    
    76   39  105 1    
    77   40   41 1    
    78   40   42 1    
    79   40  106 1    
    80   41  107 1    
    81   41  108 1    
    82   41  109 1    
    83   42   43 2    
    84   42   44 am   BACKBONE|DICT|INTERRES
    85   44   45 1    
    86   44  110 1    
    87   45   46 1    
    88   45   47 1    
    89   45  111 1    
    90   46  112 1    
    91   46  113 1    
    92   46  114 1    
    93   47   48 2    
    94   47   49 am   BACKBONE|DICT|INTERRES
    95   49   50 1    
    96   49  115 1    
    97   50   51 1    
    98   50   52 1    
    99   50  116 1    
   100   51  117 1    
   101   51  118 1    
   102   51  119 1    
   103   52   53 2    
   104   52   54 am   BACKBONE|DICT|INTERRES
   105   54   55 1    
   106   54  120 1    
   107   55   56 1    
   108   55   57 1    
   109   55  121 1    
   110   56  122 1    
   111   56  123 1    
   112   56  124 1    
   113   57   58 2    
   114   57   59 am   BACKBONE|DICT|INTERRES
   115   59   60 1    
   116   59  125 1    
   117   60   61 1    
   118   60   62 1    
   119   60  126 1    
   120   61  127 1    
   121   61  128 1    
   122   61  129 1    
   123   62   63 2    
   124   62   64 am   BACKBONE|DICT|INTERRES
   125   64   65 1    
   126   64  130 1    
   127   65   66 1    
   128   65   69 1    
   129   65  131 1    
   130   66   67 am   BACKBONE|DICT|INTERRES
   131   66   68 2    
   132   67  132 1    
   133   67  133 1    
   134   69   70 1    
   135   69  134 1    
   136   69  135 1    
   137   70   71 1    
   138   71  136 1    
   139   71  137 1    
@<TRIPOS>SUBSTRUCTURE
     1 UNK         1 GROUP             0       ****    0 ROOT    
