@<TRIPOS>MOLECULE
3R137
137   139    1
SMALL
USER_CHARGES


@<TRIPOS>ATOM
      1 CA         22.8383   -4.5634   -1.3487 C.3       0 UNK        -0.2020 
      2 C          24.2593   -4.1121   -1.6497 C.2       0 UNK         0.4855 
      3 O          24.5534   -3.7531   -2.7884 O.2       0 UNK        -0.5197 
      4 N          25.1314   -4.1156   -0.6321 N.am      1 UNK        -0.4892 
      5 CA         26.5556   -3.7552   -0.6872 C.3       1 UNK         0.0835 
      6 C6         27.4221   -4.8409   -1.3853 C.3       12 UNK        -0.0855 
      7 S7         29.0243   -5.0418   -0.5358 S.3       12 UNK        -0.2931 
      8 C8         30.1162   -5.5681   -1.8946 C.3       12 UNK         0.0378 
      9 C9         30.4067   -4.4544   -2.8929 C.ar      12 UNK        -0.0802 
     10 C10        30.1780   -4.6612   -4.2555 C.ar      12 UNK        -0.0944 
     11 C11        30.4830   -3.6660   -5.1878 C.ar      12 UNK        -0.0787 
     12 C12        31.0176   -2.4522   -4.7428 C.ar      12 UNK        -0.0862 
     13 C13        31.2359   -2.2202   -3.3804 C.ar      12 UNK        -0.0733 
     14 C14        30.9373   -3.2333   -2.4641 C.ar      12 UNK        -0.0832 
     15 C15        31.8178   -0.9000   -2.8728 C.3       12 UNK         0.0240 
     16 S16        31.2310    0.5967   -3.7454 S.3       12 UNK        -0.2522 
     17 C17        29.4179    0.4448   -3.6214 C.3       12 UNK        -0.0967 
     18 CA         28.7696    0.2548   -5.0201 C.3       5 UNK         0.0660 
     19 N          27.6974   -0.7438   -4.9968 N.am      5 UNK        -0.4015 
     20 C          27.1079   -1.2515   -6.0891 C.2       4 UNK         0.4946 
     21 O          27.4089   -0.9489   -7.2436 O.2       4 UNK        -0.5353 
     22 CA         25.9503   -2.2330   -5.8538 C.3       4 UNK         0.0277 
     23 CB         26.4871   -3.6327   -5.5148 C.3       4 UNK        -0.1981 
     24 N          25.0394   -1.7754   -4.8020 N.am      4 UNK        -0.4209 
     25 C          24.3196   -0.6446   -4.8651 C.2       3 UNK         0.4942 
     26 O          24.2968    0.1006   -5.8438 O.2       3 UNK        -0.5208 
     27 CA         23.5420   -0.2403   -3.6038 C.3       3 UNK         0.0250 
     28 CB         22.2518   -1.0628   -3.4587 C.3       3 UNK        -0.1990 
     29 N          24.3565   -0.3534   -2.3918 N.am      3 UNK        -0.4232 
     30 C          25.4509    0.3824   -2.1442 C.2       2 UNK         0.4993 
     31 O          25.8737    1.2570   -2.8978 O.2       2 UNK        -0.5286 
     32 CA         26.2297    0.0718   -0.8568 C.3       2 UNK         0.0209 
     33 CB         25.6948    0.9109    0.3144 C.3       2 UNK        -0.1931 
     34 N          26.2039   -1.3480   -0.4974 N.am      2 UNK        -0.4546 
     35 C          26.7682   -2.3220   -1.2261 C.2       1 UNK         0.5154 
     36 O          27.3617   -2.1149   -2.2875 O.2       1 UNK        -0.5181 
     37 C          28.3271    1.5993   -5.6386 C.2       5 UNK         0.5014 
     38 O          29.1002    2.2127   -6.3741 O.2       5 UNK        -0.5248 
     39 N          27.0945    2.0353   -5.3419 N.am      6 UNK        -0.4434 
     40 CA         26.4799    3.2279   -5.9259 C.3       6 UNK         0.0363 
     41 CB         25.2310    3.6155   -5.1179 C.3       6 UNK        -0.1936 
     42 C          26.1294    3.0456   -7.4119 C.2       6 UNK         0.5081 
     43 O          26.3525    3.9666   -8.1983 O.2       6 UNK        -0.5248 
     44 N          25.5776    1.8768   -7.7687 N.am      7 UNK        -0.4718 
     45 CA         25.1747    1.5321   -9.1338 C.3       7 UNK         0.0273 
     46 CB         24.3125    0.2594   -9.1153 C.3       7 UNK        -0.1935 
     47 C          26.3671    1.3665  -10.0881 C.2       7 UNK         0.5018 
     48 O          26.3471    1.9332  -11.1819 O.2       7 UNK        -0.5186 
     49 N          27.3775    0.6005   -9.6618 N.am      8 UNK        -0.4240 
     50 CA         28.5979    0.3367  -10.4155 C.3       8 UNK         0.0235 
     51 CB         28.8193   -1.1860  -10.4865 C.3       8 UNK        -0.2000 
     52 C          29.7541    1.0601   -9.7191 C.2       8 UNK         0.4941 
     53 O          30.4671    0.4499   -8.9260 O.2       8 UNK        -0.5273 
     54 N          29.9309    2.3517  -10.0280 N.am      9 UNK        -0.4262 
     55 CA         30.9250    3.2404   -9.4066 C.3       9 UNK         0.0264 
     56 CB         30.7589    4.6571   -9.9804 C.3       9 UNK        -0.1955 
     57 C          32.3948    2.7808   -9.5213 C.2       9 UNK         0.5031 
     58 O          33.2153    3.1841   -8.6958 O.2       9 UNK        -0.5390 
     59 N          32.7041    1.9531  -10.5287 N.am      10 UNK        -0.4204 
     60 CA         34.0154    1.3311  -10.7307 C.3       10 UNK         0.0237 
     61 CB         34.1653    0.9690  -12.2182 C.3       10 UNK        -0.1985 
     62 C          34.2550    0.0869   -9.8501 C.2       10 UNK         0.4970 
     63 O          35.4019   -0.3513   -9.7480 O.2       10 UNK        -0.4914 
     64 N          33.1939   -0.4822   -9.2631 N.am      11 UNK        -0.4285 
     65 CA         33.2393   -1.6646   -8.3930 C.3       11 UNK         0.1007 
     66 C          33.8838   -1.3559   -7.0121 C.2       11 UNK         0.5703 
     67 N          34.5615   -2.3249   -6.4119 N.am      11 UNK        -0.7361 
     68 O          33.7601   -0.2590   -6.4715 O.2       11 UNK        -0.4986 
     69 C69        31.8160   -2.2634   -8.2678 C.3       12 UNK        -0.0947 
     70 S70        31.7473   -3.9755   -7.6505 S.3       12 UNK        -0.2240 
     71 C71        30.2146   -3.9082   -6.6673 C.3       12 UNK         0.0194 
     72 H72        22.5356   -5.3377   -2.0529 H         1 UNK         0.0906 
     73 H73        22.7427   -4.9680   -0.3414 H         1 UNK         0.0906 
     74 H74        22.1481   -3.7263   -1.4459 H         1 UNK         0.0906 
     75 H75        24.8050   -4.4087    0.2792 H         1 UNK         0.3140 
     76 H76        26.8579   -3.7151    0.3611 H         1 UNK         0.1085 
     77 H77        26.9228   -5.8100   -1.3418 H         1 UNK         0.0836 
     78 H78        27.5641   -4.6369   -2.4477 H         1 UNK         0.0836 
     79 H79        29.6722   -6.4340   -2.3885 H         1 UNK         0.0731 
     80 H80        31.0618   -5.9089   -1.4707 H         1 UNK         0.0731 
     81 H81        29.7689   -5.6038   -4.5928 H         1 UNK         0.1312 
     82 H82        31.2661   -1.6809   -5.4548 H         1 UNK         0.1406 
     83 H83        31.1165   -3.0753   -1.4092 H         1 UNK         0.1631 
     84 H84        32.9040   -0.9459   -2.9599 H         1 UNK         0.0717 
     85 H85        31.5984   -0.7754   -1.8113 H         1 UNK         0.0717 
     86 H86        29.1937   -0.4010   -2.9714 H         1 UNK         0.0934 
     87 H87        29.0179    1.3156   -3.0976 H         1 UNK         0.0934 
     88 H88        29.5170   -0.1524   -5.7042 H         1 UNK         0.0739 
     89 H89        27.4142   -1.0919   -4.0860 H         1 UNK         0.3093 
     90 H90        25.3769   -2.3019   -6.7804 H         1 UNK         0.0818 
     91 H91        27.1248   -4.0099   -6.3148 H         1 UNK         0.0819 
     92 H92        27.0801   -3.6264   -4.5997 H         1 UNK         0.0819 
     93 H93        25.6753   -4.3478   -5.3811 H         1 UNK         0.0819 
     94 H94        24.9708   -2.3623   -3.9719 H         1 UNK         0.3041 
     95 H95        23.2608    0.8095   -3.7129 H         1 UNK         0.0784 
     96 H96        21.6087   -0.9279   -4.3295 H         1 UNK         0.0793 
     97 H97        22.4553   -2.1297   -3.3713 H         1 UNK         0.0793 
     98 H98        21.6791   -0.7550   -2.5837 H         1 UNK         0.0793 
     99 H99        24.1020   -1.0718   -1.7309 H         1 UNK         0.3024 
    100 H100       27.2705    0.3534   -1.0335 H         1 UNK         0.1171 
    101 H101       26.2954    0.7672    1.2128 H         1 UNK         0.0786 
    102 H102       25.7232    1.9752    0.0753 H         1 UNK         0.0786 
    103 H103       24.6614    0.6589    0.5558 H         1 UNK         0.0786 
    104 H104       25.7117   -1.5972    0.3488 H         1 UNK         0.2977 
    105 H105       26.5458    1.5330   -4.6473 H         1 UNK         0.3127 
    106 H106       27.1972    4.0481   -5.8520 H         1 UNK         0.0770 
    107 H107       24.4845    2.8204   -5.1220 H         1 UNK         0.0814 
    108 H108       24.7605    4.5092   -5.5299 H         1 UNK         0.0814 
    109 H109       25.4828    3.8304   -4.0792 H         1 UNK         0.0814 
    110 H110       25.3721    1.1908   -7.0464 H         1 UNK         0.2983 
    111 H111       24.5596    2.3498   -9.5160 H         1 UNK         0.0947 
    112 H112       23.9990   -0.0168  -10.1229 H         1 UNK         0.0806 
    113 H113       23.4090    0.4028   -8.5224 H         1 UNK         0.0806 
    114 H114       24.8544   -0.5892   -8.6958 H         1 UNK         0.0806 
    115 H115       27.3318    0.1805   -8.7337 H         1 UNK         0.3000 
    116 H116       28.5239    0.7121  -11.4384 H         1 UNK         0.0850 
    117 H117       29.7418   -1.4221  -11.0180 H         1 UNK         0.0810 
    118 H118       28.0037   -1.6783  -11.0159 H         1 UNK         0.0810 
    119 H119       28.8875   -1.6335   -9.4937 H         1 UNK         0.0810 
    120 H120       29.2876    2.7807  -10.6787 H         1 UNK         0.3040 
    121 H121       30.6926    3.2778   -8.3404 H         1 UNK         0.0766 
    122 H122       30.9378    4.6805  -11.0561 H         1 UNK         0.0812 
    123 H123       29.7568    5.0451   -9.7956 H         1 UNK         0.0812 
    124 H124       31.4619    5.3513   -9.5177 H         1 UNK         0.0812 
    125 H125       31.9679    1.6853  -11.1654 H         1 UNK         0.3205 
    126 H126       34.7904    2.0588  -10.4800 H         1 UNK         0.0754 
    127 H127       35.1474    0.5384  -12.4192 H         1 UNK         0.0769 
    128 H128       34.0651    1.8496  -12.8533 H         1 UNK         0.0769 
    129 H129       33.4190    0.2388  -12.5342 H         1 UNK         0.0769 
    130 H130       32.2883   -0.0241   -9.3123 H         1 UNK         0.2981 
    131 H131       33.8681   -2.4012   -8.8973 H         1 UNK         0.0541 
    132 H132       34.6394   -3.2382   -6.8310 H         1 UNK         0.3459 
    133 H133       34.9786   -2.1471   -5.5124 H         1 UNK         0.3459 
    134 H134       31.3409   -2.2820   -9.2492 H         1 UNK         0.0612 
    135 H135       31.1899   -1.6188   -7.6519 H         1 UNK         0.0612 
    136 H136       29.5461   -3.1360   -7.0511 H         1 UNK         0.0624 
    137 H137       29.6866   -4.8526   -6.8064 H         1 UNK         0.0624 
@<TRIPOS>BOND
     1    1    2 1    
     2    1   72 1    
     3    1   73 1    
     4    1   74 1    
     5    2    3 2    
     6    2    4 am   BACKBONE|DICT|INTERRES
     7    4    5 1    
     8    4   75 1    
     9    5    6 1    
    10    5   35 1    
    11    5   76 1    
    12    6    7 1    
    13    6   77 1    
    14    6   78 1    
    15    7    8 1    
    16    8    9 1    
    17    8   79 1    
    18    8   80 1    
    19    9   10 ar   
    20    9   14 ar   
    21   10   11 ar   
    22   10   81 1    
    23   11   12 ar   
    24   11   71 1    
    25   12   13 ar   
    26   12   82 1    
    27   13   14 ar   
    28   13   15 1    
    29   14   83 1    
    30   15   16 1    
    31   15   84 1    
    32   15   85 1    
    33   16   17 1    
    34   17   18 1    
    35   17   86 1    
    36   17   87 1    
    37   18   19 1    
    38   18   37 1    
    39   18   88 1    
    40   19   20 am   BACKBONE|DICT|INTERRES
    41   19   89 1    
    42   20   21 2    
    43   20   22 1    
    44   22   23 1    
    45   22   24 1    
    46   22   90 1    
    47   23   91 1    
    48   23   92 1    
    49   23   93 1    
    50   24   25 am   BACKBONE|DICT|INTERRES
    51   24   94 1    
    52   25   26 2    
    53   25   27 1    
    54   27   28 1    
    55   27   29 1    
    56   27   95 1    
    57   28   96 1    
    58   28   97 1    
    59   28   98 1    
    60   29   30 am   BACKBONE|DICT|INTERRES
    61   29   99 1    
    62   30   31 2    
    63   30   32 1    
    64   32   33 1    
    65   32   34 1    
    66   32  100 1    
    67   33  101 1    
    68   33  102 1    
    69   33  103 1    
    70   34   35 am   BACKBONE|DICT|INTERRES
    71   34  104 1    
    72   35   36 2    
    73   37   38 2    
    74   37   39 am   BACKBONE|DICT|INTERRES
    75   39   40 1    
    76   39  105 1    
    77   40   41 1    
    78   40   42 1    
    79   40  106 1    
    80   41  107 1    
    81   41  108 1    
    82   41  109 1    
    83   42   43 2    
    84   42   44 am   BACKBONE|DICT|INTERRES
    85   44   45 1    
    86   44  110 1    
    87   45   46 1    
    88   45   47 1    
    89   45  111 1    
    90   46  112 1    
    91   46  113 1    
    92   46  114 1    
    93   47   48 2    
    94   47   49 am   BACKBONE|DICT|INTERRES
    95   49   50 1    
    96   49  115 1    
    97   50   51 1    
    98   50   52 1    
    99   50  116 1    
   100   51  117 1    
   101   51  118 1    
   102   51  119 1    
   103   52   53 2    
   104   52   54 am   BACKBONE|DICT|INTERRES
   105   54   55 1    
   106   54  120 1    
   107   55   56 1    
   108   55   57 1    
   109   55  121 1    
   110   56  122 1    
   111   56  123 1    
   112   56  124 1    
   113   57   58 2    
   114   57   59 am   BACKBONE|DICT|INTERRES
   115   59   60 1    
   116   59  125 1    
   117   60   61 1    
   118   60   62 1    
   119   60  126 1    
   120   61  127 1    
   121   61  128 1    
   122   61  129 1    
   123   62   63 2    
   124   62   64 am   BACKBONE|DICT|INTERRES
   125   64   65 1    
   126   64  130 1    
   127   65   66 1    
   128   65   69 1    
   129   65  131 1    
   130   66   67 am   BACKBONE|DICT|INTERRES
   131   66   68 2    
   132   67  132 1    
   133   67  133 1    
   134   69   70 1    
   135   69  134 1    
   136   69  135 1    
   137   70   71 1    
   138   71  136 1    
   139   71  137 1    
@<TRIPOS>SUBSTRUCTURE
     1 UNK         1 GROUP             0       ****    0 ROOT    
