@<TRIPOS>MOLECULE
3R137
137   139    1
SMALL
USER_CHARGES


@<TRIPOS>ATOM
      1 CA         29.9380   -2.8524   -5.7727 C.3       0 UNK        -0.2020 
      2 C          29.1814   -4.1419   -5.5109 C.2       0 UNK         0.4855 
      3 O          28.8359   -4.8564   -6.4511 O.2       0 UNK        -0.5197 
      4 N          28.9235   -4.4424   -4.2332 N.am      1 UNK        -0.4892 
      5 CA         28.2322   -5.6553   -3.7725 C.3       1 UNK         0.0835 
      6 C6         28.4675   -5.8910   -2.2607 C.3       12 UNK        -0.0855 
      7 S7         30.2379   -6.0251   -1.8406 S.3       12 UNK        -0.2931 
      8 C8         30.4186   -4.7453   -0.5571 C.3       12 UNK         0.0378 
      9 C9         30.5501   -3.3359   -1.1241 C.ar      12 UNK        -0.0802 
     10 C10        31.7179   -2.9629   -1.7971 C.ar      12 UNK        -0.0944 
     11 C11        31.9114   -1.6413   -2.2099 C.ar      12 UNK        -0.0787 
     12 C12        30.9227   -0.6887   -1.9508 C.ar      12 UNK        -0.0862 
     13 C13        29.7433   -1.0485   -1.2926 C.ar      12 UNK        -0.0733 
     14 C14        29.5564   -2.3772   -0.8924 C.ar      12 UNK        -0.0832 
     15 C15        28.7135    0.0151   -0.9324 C.3       12 UNK         0.0240 
     16 S16        27.3730    0.1468   -2.1546 S.3       12 UNK        -0.2522 
     17 C17        28.1273    1.1531   -3.4796 C.3       12 UNK        -0.0967 
     18 CA         27.8282    0.5616   -4.8829 C.3       5 UNK         0.0660 
     19 N          26.3869    0.5490   -5.1882 N.am      5 UNK        -0.4015 
     20 C          25.5992    1.5563   -5.6070 C.2       4 UNK         0.4946 
     21 O          26.0172    2.6720   -5.9175 O.2       4 UNK        -0.5353 
     22 CA         24.0772    1.3050   -5.6891 C.3       4 UNK         0.0277 
     23 CB         23.6049    1.0757   -7.1347 C.3       4 UNK        -0.1981 
     24 N          23.6152    0.1950   -4.8556 N.am      4 UNK        -0.4209 
     25 C          23.5127    0.2409   -3.5209 C.2       3 UNK         0.4942 
     26 O          23.6928    1.2641   -2.8593 O.2       3 UNK        -0.5208 
     27 CA         23.1522   -1.0676   -2.7886 C.3       3 UNK         0.0250 
     28 CB         21.6709   -1.0534   -2.3748 C.3       3 UNK        -0.1990 
     29 N          23.4361   -2.3260   -3.4987 N.am      3 UNK        -0.4232 
     30 C          24.6187   -2.6930   -4.0104 C.2       2 UNK         0.4993 
     31 O          25.5854   -1.9365   -4.1317 O.2       2 UNK        -0.5286 
     32 CA         24.7572   -4.1421   -4.4833 C.3       2 UNK         0.0209 
     33 CB         24.2940   -4.3079   -5.9402 C.3       2 UNK        -0.1931 
     34 N          26.1732   -4.4606   -4.3683 N.am      2 UNK        -0.4546 
     35 C          26.7157   -5.6430   -4.0710 C.2       1 UNK         0.5154 
     36 O          26.0681   -6.6882   -3.9913 O.2       1 UNK        -0.5181 
     37 C          28.6872    1.1921   -6.0018 C.2       5 UNK         0.5014 
     38 O          29.0837    0.4923   -6.9391 O.2       5 UNK        -0.5248 
     39 N          28.9377    2.5060   -5.9120 N.am      6 UNK        -0.4434 
     40 CA         29.6191    3.3055   -6.9329 C.3       6 UNK         0.0363 
     41 CB         29.8026    4.7429   -6.4240 C.3       6 UNK        -0.1936 
     42 C          28.8973    3.2976   -8.2908 C.2       6 UNK         0.5081 
     43 O          29.5598    3.2635   -9.3257 O.2       6 UNK        -0.5248 
     44 N          27.5600    3.2764   -8.2654 N.am      7 UNK        -0.4718 
     45 CA         26.7193    3.1486   -9.4556 C.3       7 UNK         0.0273 
     46 CB         25.4426    3.9845   -9.2578 C.3       7 UNK        -0.1935 
     47 C          26.4054    1.6822   -9.8130 C.2       7 UNK         0.5018 
     48 O          25.8344    1.4484  -10.8788 O.2       7 UNK        -0.5186 
     49 N          26.7777    0.7228   -8.9490 N.am      8 UNK        -0.4240 
     50 CA         26.6500   -0.7116   -9.2189 C.3       8 UNK         0.0235 
     51 CB         26.5283   -1.5240   -7.9152 C.3       8 UNK        -0.2000 
     52 C          27.8287   -1.2235  -10.0553 C.2       8 UNK         0.4941 
     53 O          27.5987   -1.8374  -11.0982 O.2       8 UNK        -0.5273 
     54 N          29.0613   -0.9836   -9.5821 N.am      9 UNK        -0.4262 
     55 CA         30.2731   -1.5550  -10.1800 C.3       9 UNK         0.0264 
     56 CB         30.4585   -3.0122   -9.7025 C.3       9 UNK        -0.1955 
     57 C          31.5239   -0.6921   -9.9470 C.2       9 UNK         0.5031 
     58 O          32.6113   -1.2469   -9.7803 O.2       9 UNK        -0.5390 
     59 N          31.3661    0.6421   -9.9483 N.am      10 UNK        -0.4204 
     60 CA         32.4386    1.6455   -9.8158 C.3       10 UNK         0.0237 
     61 CB         33.3602    1.6264  -11.0553 C.3       10 UNK        -0.1985 
     62 C          33.2241    1.5527   -8.4901 C.2       10 UNK         0.4970 
     63 O          34.4081    1.8908   -8.4513 O.2       10 UNK        -0.4914 
     64 N          32.5475    1.0997   -7.4277 N.am      11 UNK        -0.4285 
     65 CA         33.1101    0.8623   -6.0898 C.3       11 UNK         0.1007 
     66 C          33.4150    2.1405   -5.2501 C.2       11 UNK         0.5703 
     67 N          33.1646    3.3462   -5.7464 N.am      11 UNK        -0.7361 
     68 O          33.8969    2.0389   -4.1254 O.2       11 UNK        -0.4986 
     69 C69        32.2406   -0.1690   -5.3134 C.3       12 UNK        -0.0947 
     70 S70        33.2204   -1.5610   -4.6581 S.3       12 UNK        -0.2240 
     71 C71        33.2197   -1.2315   -2.8707 C.3       12 UNK         0.0194 
     72 H72        30.0269   -2.2463   -4.8708 H         1 UNK         0.0906 
     73 H73        30.9419   -3.0797   -6.1298 H         1 UNK         0.0906 
     74 H74        29.4327   -2.2600   -6.5333 H         1 UNK         0.0906 
     75 H75        29.2703   -3.8399   -3.4989 H         1 UNK         0.3140 
     76 H76        28.6487   -6.5049   -4.3186 H         1 UNK         0.1085 
     77 H77        27.9851   -6.8163   -1.9386 H         1 UNK         0.0836 
     78 H78        28.0081   -5.0920   -1.6753 H         1 UNK         0.0836 
     79 H79        31.3148   -4.9686    0.0236 H         1 UNK         0.0731 
     80 H80        29.5868   -4.8114    0.1462 H         1 UNK         0.0731 
     81 H81        32.4940   -3.6969   -1.9682 H         1 UNK         0.1312 
     82 H82        31.0892    0.3420   -2.2304 H         1 UNK         0.1406 
     83 H83        28.6578   -2.6502   -0.3554 H         1 UNK         0.1631 
     84 H84        29.1911    0.9882   -0.8068 H         1 UNK         0.0717 
     85 H85        28.2716   -0.2247    0.0359 H         1 UNK         0.0717 
     86 H86        27.7386    2.1690   -3.3909 H         1 UNK         0.0934 
     87 H87        29.2028    1.2182   -3.3117 H         1 UNK         0.0934 
     88 H88        28.1237   -0.4884   -4.8554 H         1 UNK         0.0739 
     89 H89        25.9335   -0.3211   -4.9135 H         1 UNK         0.3093 
     90 H90        23.5966    2.2182   -5.3309 H         1 UNK         0.0818 
     91 H91        23.9672    1.8551   -7.8009 H         1 UNK         0.0819 
     92 H92        23.9424    0.1242   -7.5393 H         1 UNK         0.0819 
     93 H93        22.5166    1.0892   -7.1953 H         1 UNK         0.0819 
     94 H94        23.4407   -0.6867   -5.3147 H         1 UNK         0.3041 
     95 H95        23.7565   -1.0824   -1.8791 H         1 UNK         0.0784 
     96 H96        21.4277   -0.1481   -1.8163 H         1 UNK         0.0793 
     97 H97        21.0106   -1.0877   -3.2424 H         1 UNK         0.0793 
     98 H98        21.4279   -1.8998   -1.7321 H         1 UNK         0.0793 
     99 H99        22.6934   -3.0107   -3.4840 H         1 UNK         0.3024 
    100 H100       24.1774   -4.7933   -3.8250 H         1 UNK         0.1171 
    101 H101       23.2356   -4.0670   -6.0462 H         1 UNK         0.0786 
    102 H102       24.8487   -3.6570   -6.6158 H         1 UNK         0.0786 
    103 H103       24.4289   -5.3342   -6.2823 H         1 UNK         0.0786 
    104 H104       26.7694   -3.6412   -4.3677 H         1 UNK         0.2977 
    105 H105       28.5151    3.0190   -5.1515 H         1 UNK         0.3127 
    106 H106       30.6061    2.8747   -7.0867 H         1 UNK         0.0770 
    107 H107       28.8454    5.2266   -6.2251 H         1 UNK         0.0814 
    108 H108       30.3292    5.3527   -7.1595 H         1 UNK         0.0814 
    109 H109       30.3897    4.7671   -5.5057 H         1 UNK         0.0814 
    110 H110       27.0819    3.2568   -7.3658 H         1 UNK         0.2983 
    111 H111       27.2443    3.5624  -10.3197 H         1 UNK         0.0947 
    112 H112       24.7153    3.8011  -10.0500 H         1 UNK         0.0806 
    113 H113       25.6728    5.0498   -9.2758 H         1 UNK         0.0806 
    114 H114       24.9578    3.7761   -8.3056 H         1 UNK         0.0806 
    115 H115       27.3002    0.9902   -8.1261 H         1 UNK         0.3000 
    116 H116       25.7364   -0.8832   -9.7930 H         1 UNK         0.0850 
    117 H117       27.3812   -1.3856   -7.2555 H         1 UNK         0.0810 
    118 H118       26.4703   -2.5913   -8.1335 H         1 UNK         0.0810 
    119 H119       25.6338   -1.2689   -7.3535 H         1 UNK         0.0810 
    120 H120       29.1672   -0.4806   -8.7047 H         1 UNK         0.3040 
    121 H121       30.1482   -1.5758  -11.2649 H         1 UNK         0.0766 
    122 H122       30.6403   -3.0611   -8.6294 H         1 UNK         0.0812 
    123 H123       31.3062   -3.4858  -10.1991 H         1 UNK         0.0812 
    124 H124       29.5823   -3.6228   -9.9206 H         1 UNK         0.0812 
    125 H125       30.4371    1.0190  -10.0873 H         1 UNK         0.3205 
    126 H126       31.9551    2.6213   -9.8003 H         1 UNK         0.0754 
    127 H127       34.0642    2.4593  -11.0345 H         1 UNK         0.0769 
    128 H128       32.7858    1.7153  -11.9775 H         1 UNK         0.0769 
    129 H129       33.9459    0.7083  -11.1118 H         1 UNK         0.0769 
    130 H130       31.5774    0.8478   -7.5482 H         1 UNK         0.2981 
    131 H131       34.0910    0.4164   -6.2654 H         1 UNK         0.0541 
    132 H132       33.3778    4.1575   -5.1883 H         1 UNK         0.3459 
    133 H133       32.8267    3.4542   -6.6871 H         1 UNK         0.3459 
    134 H134       31.6584    0.3004   -4.5203 H         1 UNK         0.0612 
    135 H135       31.4983   -0.6121   -5.9764 H         1 UNK         0.0612 
    136 H136       33.4316   -0.1775   -2.6884 H         1 UNK         0.0624 
    137 H137       34.0430   -1.7855   -2.4174 H         1 UNK         0.0624 
@<TRIPOS>BOND
     1    1    2 1    
     2    1   72 1    
     3    1   73 1    
     4    1   74 1    
     5    2    3 2    
     6    2    4 am   BACKBONE|DICT|INTERRES
     7    4    5 1    
     8    4   75 1    
     9    5    6 1    
    10    5   35 1    
    11    5   76 1    
    12    6    7 1    
    13    6   77 1    
    14    6   78 1    
    15    7    8 1    
    16    8    9 1    
    17    8   79 1    
    18    8   80 1    
    19    9   10 ar   
    20    9   14 ar   
    21   10   11 ar   
    22   10   81 1    
    23   11   12 ar   
    24   11   71 1    
    25   12   13 ar   
    26   12   82 1    
    27   13   14 ar   
    28   13   15 1    
    29   14   83 1    
    30   15   16 1    
    31   15   84 1    
    32   15   85 1    
    33   16   17 1    
    34   17   18 1    
    35   17   86 1    
    36   17   87 1    
    37   18   19 1    
    38   18   37 1    
    39   18   88 1    
    40   19   20 am   BACKBONE|DICT|INTERRES
    41   19   89 1    
    42   20   21 2    
    43   20   22 1    
    44   22   23 1    
    45   22   24 1    
    46   22   90 1    
    47   23   91 1    
    48   23   92 1    
    49   23   93 1    
    50   24   25 am   BACKBONE|DICT|INTERRES
    51   24   94 1    
    52   25   26 2    
    53   25   27 1    
    54   27   28 1    
    55   27   29 1    
    56   27   95 1    
    57   28   96 1    
    58   28   97 1    
    59   28   98 1    
    60   29   30 am   BACKBONE|DICT|INTERRES
    61   29   99 1    
    62   30   31 2    
    63   30   32 1    
    64   32   33 1    
    65   32   34 1    
    66   32  100 1    
    67   33  101 1    
    68   33  102 1    
    69   33  103 1    
    70   34   35 am   BACKBONE|DICT|INTERRES
    71   34  104 1    
    72   35   36 2    
    73   37   38 2    
    74   37   39 am   BACKBONE|DICT|INTERRES
    75   39   40 1    
    76   39  105 1    
    77   40   41 1    
    78   40   42 1    
    79   40  106 1    
    80   41  107 1    
    81   41  108 1    
    82   41  109 1    
    83   42   43 2    
    84   42   44 am   BACKBONE|DICT|INTERRES
    85   44   45 1    
    86   44  110 1    
    87   45   46 1    
    88   45   47 1    
    89   45  111 1    
    90   46  112 1    
    91   46  113 1    
    92   46  114 1    
    93   47   48 2    
    94   47   49 am   BACKBONE|DICT|INTERRES
    95   49   50 1    
    96   49  115 1    
    97   50   51 1    
    98   50   52 1    
    99   50  116 1    
   100   51  117 1    
   101   51  118 1    
   102   51  119 1    
   103   52   53 2    
   104   52   54 am   BACKBONE|DICT|INTERRES
   105   54   55 1    
   106   54  120 1    
   107   55   56 1    
   108   55   57 1    
   109   55  121 1    
   110   56  122 1    
   111   56  123 1    
   112   56  124 1    
   113   57   58 2    
   114   57   59 am   BACKBONE|DICT|INTERRES
   115   59   60 1    
   116   59  125 1    
   117   60   61 1    
   118   60   62 1    
   119   60  126 1    
   120   61  127 1    
   121   61  128 1    
   122   61  129 1    
   123   62   63 2    
   124   62   64 am   BACKBONE|DICT|INTERRES
   125   64   65 1    
   126   64  130 1    
   127   65   66 1    
   128   65   69 1    
   129   65  131 1    
   130   66   67 am   BACKBONE|DICT|INTERRES
   131   66   68 2    
   132   67  132 1    
   133   67  133 1    
   134   69   70 1    
   135   69  134 1    
   136   69  135 1    
   137   70   71 1    
   138   71  136 1    
   139   71  137 1    
@<TRIPOS>SUBSTRUCTURE
     1 UNK         1 GROUP             0       ****    0 ROOT    
