@<TRIPOS>MOLECULE
3R137
137   139    1
SMALL
USER_CHARGES


@<TRIPOS>ATOM
      1 CA         24.7461   -5.7486   -1.5083 C.3       0 UNK        -0.2020 
      2 C          25.4342   -4.6137   -0.7644 C.2       0 UNK         0.4855 
      3 O          24.8261   -3.9974    0.1116 O.2       0 UNK        -0.5197 
      4 N          26.7014   -4.3439   -1.0998 N.am      1 UNK        -0.4892 
      5 CA         27.5128   -3.2561   -0.5398 C.3       1 UNK         0.0835 
      6 C6         29.0153   -3.4283   -0.8759 C.3       12 UNK        -0.0855 
      7 S7         29.6622   -5.0434   -0.3065 S.3       12 UNK        -0.2931 
      8 C8         31.2133   -5.2250   -1.2543 C.3       12 UNK         0.0378 
      9 C9         31.0247   -5.0083   -2.7503 C.ar      12 UNK        -0.0802 
     10 C10        31.7827   -4.0396   -3.4145 C.ar      12 UNK        -0.0944 
     11 C11        31.5710   -3.7796   -4.7707 C.ar      12 UNK        -0.0787 
     12 C12        30.5879   -4.4902   -5.4631 C.ar      12 UNK        -0.0862 
     13 C13        29.8211   -5.4595   -4.8095 C.ar      12 UNK        -0.0733 
     14 C14        30.0646   -5.7361   -3.4610 C.ar      12 UNK        -0.0832 
     15 C15        28.6873   -6.1586   -5.5466 C.3       12 UNK         0.0240 
     16 S16        27.0512   -5.8024   -4.8143 S.3       12 UNK        -0.2522 
     17 C17        27.0380   -3.9794   -4.6847 C.3       12 UNK        -0.0967 
     18 CA         26.2170   -3.2606   -5.7781 C.3       5 UNK         0.0660 
     19 N          25.8357   -1.9198   -5.3190 N.am      5 UNK        -0.4015 
     20 C          25.0754   -1.0458   -5.9923 C.2       4 UNK         0.4946 
     21 O          24.4900   -1.3157   -7.0415 O.2       4 UNK        -0.5353 
     22 CA         24.9811    0.3851   -5.4332 C.3       4 UNK         0.0277 
     23 CB         23.6533    0.5786   -4.6843 C.3       4 UNK        -0.1981 
     24 N          26.0843    0.7892   -4.5552 N.am      4 UNK        -0.4209 
     25 C          27.3940    0.8048   -4.8378 C.2       3 UNK         0.4942 
     26 O          27.8678    0.4049   -5.9008 O.2       3 UNK        -0.5208 
     27 CA         28.3455    1.3350   -3.7465 C.3       3 UNK         0.0250 
     28 CB         28.4776    2.8686   -3.8445 C.3       3 UNK        -0.1990 
     29 N          28.0096    0.9100   -2.3752 N.am      3 UNK        -0.4232 
     30 C          26.9320    1.2258   -1.6388 C.2       2 UNK         0.4993 
     31 O          26.0485    1.9941   -2.0243 O.2       2 UNK        -0.5286 
     32 CA         26.7915    0.5375   -0.2645 C.3       2 UNK         0.0209 
     33 CB         25.3361    0.5662    0.2510 C.3       2 UNK        -0.1931 
     34 N          27.3052   -0.8410   -0.1946 N.am      2 UNK        -0.4546 
     35 C          26.9969   -1.8727   -0.9975 C.2       1 UNK         0.5154 
     36 O          26.3644   -1.7642   -2.0535 O.2       1 UNK        -0.5181 
     37 C          26.9571   -3.2473   -7.1388 C.2       5 UNK         0.5014 
     38 O          26.8198   -4.2001   -7.9079 O.2       5 UNK        -0.5248 
     39 N          27.6838   -2.1610   -7.4368 N.am      6 UNK        -0.4434 
     40 CA         28.2832   -1.8885   -8.7390 C.3       6 UNK         0.0363 
     41 CB         29.7766   -2.2643   -8.7244 C.3       6 UNK        -0.1936 
     42 C          28.0368   -0.4135   -9.0720 C.2       6 UNK         0.5081 
     43 O          28.9908    0.3491   -9.2264 O.2       6 UNK        -0.5248 
     44 N          26.7548   -0.0264   -9.1565 N.am      7 UNK        -0.4718 
     45 CA         26.2788    1.3541   -9.3380 C.3       7 UNK         0.0273 
     46 CB         24.7434    1.3533   -9.4267 C.3       7 UNK        -0.1935 
     47 C          26.8647    2.1065  -10.5480 C.2       7 UNK         0.5018 
     48 O          26.9887    3.3297  -10.4899 O.2       7 UNK        -0.5186 
     49 N          27.2257    1.3693  -11.6081 N.am      8 UNK        -0.4240 
     50 CA         27.9040    1.8942  -12.7963 C.3       8 UNK         0.0235 
     51 CB         27.8830    0.8289  -13.9045 C.3       8 UNK        -0.2000 
     52 C          29.3478    2.3551  -12.5195 C.2       8 UNK         0.4941 
     53 O          29.8176    3.2797  -13.1839 O.2       8 UNK        -0.5273 
     54 N          30.0190    1.7117  -11.5545 N.am      9 UNK        -0.4262 
     55 CA         31.3526    2.0799  -11.0780 C.3       9 UNK         0.0264 
     56 CB         32.1368    0.8059  -10.7185 C.3       9 UNK        -0.1955 
     57 C          31.2718    3.0154   -9.8618 C.2       9 UNK         0.5031 
     58 O          32.1024    3.9177   -9.7496 O.2       9 UNK        -0.5390 
     59 N          30.2857    2.7724   -8.9821 N.am      10 UNK        -0.4204 
     60 CA         30.0436    3.4265   -7.6917 C.3       10 UNK         0.0237 
     61 CB         29.6453    4.9050   -7.8801 C.3       10 UNK        -0.1985 
     62 C          31.2417    3.2266   -6.7468 C.2       10 UNK         0.4970 
     63 O          31.8841    4.1936   -6.3349 O.2       10 UNK        -0.4914 
     64 N          31.5378    1.9518   -6.4677 N.am      11 UNK        -0.4285 
     65 CA         32.7331    1.4796   -5.7512 C.3       11 UNK         0.1007 
     66 C          32.8602    1.8683   -4.2462 C.2       11 UNK         0.5703 
     67 N          31.8719    2.5037   -3.6310 N.am      11 UNK        -0.7361 
     68 O          33.8878    1.5986   -3.6286 O.2       11 UNK        -0.4986 
     69 C69        32.9495   -0.0370   -5.9920 C.3       12 UNK        -0.0947 
     70 S70        31.6117   -1.0818   -5.3221 S.3       12 UNK        -0.2240 
     71 C71        32.3917   -2.7149   -5.4773 C.3       12 UNK         0.0194 
     72 H72        24.3334   -6.4670   -0.8007 H         1 UNK         0.0906 
     73 H73        23.9294   -5.3576   -2.1143 H         1 UNK         0.0906 
     74 H74        25.4328   -6.2803   -2.1667 H         1 UNK         0.0906 
     75 H75        27.1544   -4.8935   -1.8152 H         1 UNK         0.3140 
     76 H76        27.4012   -3.3012    0.5461 H         1 UNK         0.1085 
     77 H77        29.1642   -3.3247   -1.9519 H         1 UNK         0.0836 
     78 H78        29.6130   -2.6440   -0.4078 H         1 UNK         0.0836 
     79 H79        31.9476   -4.5259   -0.8510 H         1 UNK         0.0731 
     80 H80        31.6161   -6.2248   -1.0876 H         1 UNK         0.0731 
     81 H81        32.5255   -3.4694   -2.8731 H         1 UNK         0.1312 
     82 H82        30.4032   -4.2687   -6.5042 H         1 UNK         0.1406 
     83 H83        29.4645   -6.4763   -2.9491 H         1 UNK         0.1631 
     84 H84        28.6715   -5.8697   -6.5986 H         1 UNK         0.0717 
     85 H85        28.8570   -7.2358   -5.5276 H         1 UNK         0.0717 
     86 H86        26.5816   -3.7715   -3.7189 H         1 UNK         0.0934 
     87 H87        28.0441   -3.5655   -4.6152 H         1 UNK         0.0934 
     88 H88        25.2844   -3.8091   -5.9257 H         1 UNK         0.0739 
     89 H89        26.2275   -1.6187   -4.4355 H         1 UNK         0.3093 
     90 H90        24.9965    1.0640   -6.2868 H         1 UNK         0.0818 
     91 H91        23.5182    1.6159   -4.3768 H         1 UNK         0.0819 
     92 H92        22.8038    0.3161   -5.3166 H         1 UNK         0.0819 
     93 H93        23.6024   -0.0451   -3.7907 H         1 UNK         0.0819 
     94 H94        25.8246    1.1654   -3.6452 H         1 UNK         0.3041 
     95 H95        29.3260    0.9033   -3.9552 H         1 UNK         0.0784 
     96 H96        28.8648    3.1672   -4.8179 H         1 UNK         0.0793 
     97 H97        27.5172    3.3697   -3.7204 H         1 UNK         0.0793 
     98 H98        29.1527    3.2614   -3.0847 H         1 UNK         0.0793 
     99 H99        28.6498    0.2411   -1.9708 H         1 UNK         0.3024 
    100 H100       27.3964    1.1309    0.4233 H         1 UNK         0.1171 
    101 H101       25.2558    0.1164    1.2406 H         1 UNK         0.0786 
    102 H102       24.9644    1.5885    0.3335 H         1 UNK         0.0786 
    103 H103       24.6638    0.0265   -0.4173 H         1 UNK         0.0786 
    104 H104       27.8762   -1.0360    0.6169 H         1 UNK         0.2977 
    105 H105       27.7206   -1.3852   -6.7783 H         1 UNK         0.3127 
    106 H106       27.7889   -2.4717   -9.5188 H         1 UNK         0.0770 
    107 H107       30.3175   -1.7335   -7.9412 H         1 UNK         0.0814 
    108 H108       30.2515   -2.0182   -9.6749 H         1 UNK         0.0814 
    109 H109       29.9109   -3.3336   -8.5673 H         1 UNK         0.0814 
    110 H110       26.0401   -0.7206   -8.9801 H         1 UNK         0.2983 
    111 H111       26.5730    1.9094   -8.4445 H         1 UNK         0.0947 
    112 H112       24.3566    2.3690   -9.5228 H         1 UNK         0.0806 
    113 H113       24.2853    0.9209   -8.5388 H         1 UNK         0.0806 
    114 H114       24.3911    0.7882  -10.2905 H         1 UNK         0.0806 
    115 H115       27.0692    0.3727  -11.5686 H         1 UNK         0.3000 
    116 H116       27.3440    2.7640  -13.1468 H         1 UNK         0.0850 
    117 H117       28.3592    1.2022  -14.8124 H         1 UNK         0.0810 
    118 H118       26.8627    0.5495  -14.1681 H         1 UNK         0.0810 
    119 H119       28.4145   -0.0760  -13.6069 H         1 UNK         0.0810 
    120 H120       29.5352    1.0001  -11.0173 H         1 UNK         0.3040 
    121 H121       31.8980    2.5998  -11.8688 H         1 UNK         0.0766 
    122 H122       32.2360    0.1460  -11.5805 H         1 UNK         0.0812 
    123 H123       31.6554    0.2416   -9.9187 H         1 UNK         0.0812 
    124 H124       33.1445    1.0520  -10.3810 H         1 UNK         0.0812 
    125 H125       29.7156    1.9428   -9.1501 H         1 UNK         0.3205 
    126 H126       29.1933    2.9102   -7.2428 H         1 UNK         0.0754 
    127 H127       29.3824    5.3612   -6.9250 H         1 UNK         0.0769 
    128 H128       28.7786    4.9979   -8.5351 H         1 UNK         0.0769 
    129 H129       30.4546    5.4955   -8.3104 H         1 UNK         0.0769 
    130 H130       30.9351    1.2241   -6.8245 H         1 UNK         0.2981 
    131 H131       33.5744    1.9855   -6.2285 H         1 UNK         0.0541 
    132 H132       31.0506    2.7757   -4.1423 H         1 UNK         0.3459 
    133 H133       31.9780    2.7551   -2.6614 H         1 UNK         0.3459 
    134 H134       33.9007   -0.3556   -5.5618 H         1 UNK         0.0612 
    135 H135       33.0287   -0.2337   -7.0625 H         1 UNK         0.0612 
    136 H136       33.3965   -2.6834   -5.0533 H         1 UNK         0.0624 
    137 H137       32.5070   -2.9606   -6.5342 H         1 UNK         0.0624 
@<TRIPOS>BOND
     1    1    2 1    
     2    1   72 1    
     3    1   73 1    
     4    1   74 1    
     5    2    3 2    
     6    2    4 am   BACKBONE|DICT|INTERRES
     7    4    5 1    
     8    4   75 1    
     9    5    6 1    
    10    5   35 1    
    11    5   76 1    
    12    6    7 1    
    13    6   77 1    
    14    6   78 1    
    15    7    8 1    
    16    8    9 1    
    17    8   79 1    
    18    8   80 1    
    19    9   10 ar   
    20    9   14 ar   
    21   10   11 ar   
    22   10   81 1    
    23   11   12 ar   
    24   11   71 1    
    25   12   13 ar   
    26   12   82 1    
    27   13   14 ar   
    28   13   15 1    
    29   14   83 1    
    30   15   16 1    
    31   15   84 1    
    32   15   85 1    
    33   16   17 1    
    34   17   18 1    
    35   17   86 1    
    36   17   87 1    
    37   18   19 1    
    38   18   37 1    
    39   18   88 1    
    40   19   20 am   BACKBONE|DICT|INTERRES
    41   19   89 1    
    42   20   21 2    
    43   20   22 1    
    44   22   23 1    
    45   22   24 1    
    46   22   90 1    
    47   23   91 1    
    48   23   92 1    
    49   23   93 1    
    50   24   25 am   BACKBONE|DICT|INTERRES
    51   24   94 1    
    52   25   26 2    
    53   25   27 1    
    54   27   28 1    
    55   27   29 1    
    56   27   95 1    
    57   28   96 1    
    58   28   97 1    
    59   28   98 1    
    60   29   30 am   BACKBONE|DICT|INTERRES
    61   29   99 1    
    62   30   31 2    
    63   30   32 1    
    64   32   33 1    
    65   32   34 1    
    66   32  100 1    
    67   33  101 1    
    68   33  102 1    
    69   33  103 1    
    70   34   35 am   BACKBONE|DICT|INTERRES
    71   34  104 1    
    72   35   36 2    
    73   37   38 2    
    74   37   39 am   BACKBONE|DICT|INTERRES
    75   39   40 1    
    76   39  105 1    
    77   40   41 1    
    78   40   42 1    
    79   40  106 1    
    80   41  107 1    
    81   41  108 1    
    82   41  109 1    
    83   42   43 2    
    84   42   44 am   BACKBONE|DICT|INTERRES
    85   44   45 1    
    86   44  110 1    
    87   45   46 1    
    88   45   47 1    
    89   45  111 1    
    90   46  112 1    
    91   46  113 1    
    92   46  114 1    
    93   47   48 2    
    94   47   49 am   BACKBONE|DICT|INTERRES
    95   49   50 1    
    96   49  115 1    
    97   50   51 1    
    98   50   52 1    
    99   50  116 1    
   100   51  117 1    
   101   51  118 1    
   102   51  119 1    
   103   52   53 2    
   104   52   54 am   BACKBONE|DICT|INTERRES
   105   54   55 1    
   106   54  120 1    
   107   55   56 1    
   108   55   57 1    
   109   55  121 1    
   110   56  122 1    
   111   56  123 1    
   112   56  124 1    
   113   57   58 2    
   114   57   59 am   BACKBONE|DICT|INTERRES
   115   59   60 1    
   116   59  125 1    
   117   60   61 1    
   118   60   62 1    
   119   60  126 1    
   120   61  127 1    
   121   61  128 1    
   122   61  129 1    
   123   62   63 2    
   124   62   64 am   BACKBONE|DICT|INTERRES
   125   64   65 1    
   126   64  130 1    
   127   65   66 1    
   128   65   69 1    
   129   65  131 1    
   130   66   67 am   BACKBONE|DICT|INTERRES
   131   66   68 2    
   132   67  132 1    
   133   67  133 1    
   134   69   70 1    
   135   69  134 1    
   136   69  135 1    
   137   70   71 1    
   138   71  136 1    
   139   71  137 1    
@<TRIPOS>SUBSTRUCTURE
     1 UNK         1 GROUP             0       ****    0 ROOT    
