@<TRIPOS>MOLECULE
3R137
137   139    1
SMALL
USER_CHARGES


@<TRIPOS>ATOM
      1 CA         27.8860   -2.0704    3.6597 C.3       0 UNK        -0.2020 
      2 C          28.1292   -1.6143    2.2288 C.2       0 UNK         0.4855 
      3 O          28.7428   -0.5683    2.0175 O.2       0 UNK        -0.5197 
      4 N          27.6581   -2.3950    1.2467 N.am      1 UNK        -0.4892 
      5 CA         27.7588   -2.0998   -0.1882 C.3       1 UNK         0.0835 
      6 C6         27.4293   -3.3606   -1.0270 C.3       12 UNK        -0.0855 
      7 S7         27.9434   -3.2395   -2.7695 S.3       12 UNK        -0.2931 
      8 C8         29.6634   -3.8338   -2.6749 C.3       12 UNK         0.0378 
      9 C9         30.2933   -3.9390   -4.0570 C.ar      12 UNK        -0.0802 
     10 C10        31.4117   -3.1717   -4.4018 C.ar      12 UNK        -0.0944 
     11 C11        32.0026   -3.2948   -5.6693 C.ar      12 UNK        -0.0787 
     12 C12        31.4381   -4.1833   -6.5940 C.ar      12 UNK        -0.0862 
     13 C13        30.3247   -4.9605   -6.2577 C.ar      12 UNK        -0.0733 
     14 C14        29.7688   -4.8413   -4.9832 C.ar      12 UNK        -0.0832 
     15 C15        29.7497   -5.9706   -7.2432 C.3       12 UNK         0.0240 
     16 S16        28.6360   -5.2198   -8.4747 S.3       12 UNK        -0.2522 
     17 C17        27.2440   -4.6064   -7.4576 C.3       12 UNK        -0.0967 
     18 CA         26.8235   -3.1633   -7.8284 C.3       5 UNK         0.0660 
     19 N          25.5284   -2.8028   -7.2474 N.am      5 UNK        -0.4015 
     20 C          24.8531   -1.6791   -7.5260 C.2       4 UNK         0.4946 
     21 O          25.2356   -0.8353   -8.3390 O.2       4 UNK        -0.5353 
     22 CA         23.5638   -1.4079   -6.7292 C.3       4 UNK         0.0277 
     23 CB         23.0019   -2.6425   -5.9866 C.3       4 UNK        -0.1981 
     24 N          23.7508   -0.2852   -5.8018 N.am      4 UNK        -0.4209 
     25 C          24.6739   -0.1895   -4.8319 C.2       3 UNK         0.4942 
     26 O          25.4938   -1.0751   -4.5809 O.2       3 UNK        -0.5208 
     27 CA         24.7418    1.1330   -4.0433 C.3       3 UNK         0.0250 
     28 CB         23.5380    2.0791   -4.2668 C.3       3 UNK        -0.1990 
     29 N          24.9711    0.9031   -2.6131 N.am      3 UNK        -0.4232 
     30 C          24.1575    0.2859   -1.7453 C.2       2 UNK         0.4993 
     31 O          23.0625   -0.1973   -2.0418 O.2       2 UNK        -0.5286 
     32 CA         24.6628    0.2035   -0.2915 C.3       2 UNK         0.0209 
     33 CB         23.5140    0.0116    0.7168 C.3       2 UNK        -0.1931 
     34 N          25.6374   -0.8721   -0.1022 N.am      2 UNK        -0.4546 
     35 C          26.8923   -0.8805   -0.5748 C.2       1 UNK         0.5154 
     36 O          27.3810    0.0434   -1.2285 O.2       1 UNK        -0.5181 
     37 C          27.9213   -2.1222   -7.5184 C.2       5 UNK         0.5014 
     38 O          28.7066   -1.8153   -8.4148 O.2       5 UNK        -0.5248 
     39 N          27.9277   -1.5373   -6.3079 N.am      6 UNK        -0.4434 
     40 CA         28.8822   -0.4836   -5.9490 C.3       6 UNK         0.0363 
     41 CB         28.8540   -0.1882   -4.4424 C.3       6 UNK        -0.1936 
     42 C          28.6846    0.8110   -6.7499 C.2       6 UNK         0.5081 
     43 O          29.6704    1.4723   -7.0747 O.2       6 UNK        -0.5248 
     44 N          27.4274    1.1371   -7.0779 N.am      7 UNK        -0.4718 
     45 CA         27.0809    2.2742   -7.9298 C.3       7 UNK         0.0273 
     46 CB         25.5947    2.6263   -7.7603 C.3       7 UNK        -0.1935 
     47 C          27.4289    2.0024   -9.4007 C.2       7 UNK         0.5018 
     48 O          27.9992    2.8762  -10.0534 O.2       7 UNK        -0.5186 
     49 N          27.1156    0.7899   -9.8814 N.am      8 UNK        -0.4240 
     50 CA         27.4163    0.3266  -11.2388 C.3       8 UNK         0.0235 
     51 CB         26.7316   -1.0271  -11.4855 C.3       8 UNK        -0.2000 
     52 C          28.9248    0.2338  -11.5279 C.2       8 UNK         0.4941 
     53 O          29.3624    0.6683  -12.5939 O.2       8 UNK        -0.5273 
     54 N          29.6923   -0.3128  -10.5749 N.am      9 UNK        -0.4262 
     55 CA         31.1485   -0.4516  -10.6584 C.3       9 UNK         0.0264 
     56 CB         31.6038   -1.5429   -9.6735 C.3       9 UNK        -0.1955 
     57 C          31.9142    0.8550  -10.3829 C.2       9 UNK         0.5031 
     58 O          33.1070    0.9086  -10.6864 O.2       9 UNK        -0.5390 
     59 N          31.2428    1.8566   -9.7900 N.am      10 UNK        -0.4204 
     60 CA         31.8025    3.1039   -9.2491 C.3       10 UNK         0.0237 
     61 CB         32.3474    4.0098  -10.3738 C.3       10 UNK        -0.1985 
     62 C          32.8329    2.8126   -8.1396 C.2       10 UNK         0.4970 
     63 O          33.9660    3.2950   -8.1875 O.2       10 UNK        -0.4914 
     64 N          32.4108    1.9789   -7.1831 N.am      11 UNK        -0.4285 
     65 CA         33.2261    1.4285   -6.0924 C.3       11 UNK         0.1007 
     66 C          33.5675    2.4403   -4.9593 C.2       11 UNK         0.5703 
     67 N          32.9038    3.5877   -4.8735 N.am      11 UNK        -0.7361 
     68 O          34.4590    2.1884   -4.1525 O.2       11 UNK        -0.4986 
     69 C69        32.5670    0.1337   -5.5425 C.3       12 UNK        -0.0947 
     70 S70        33.7619   -1.1340   -5.0131 S.3       12 UNK        -0.2240 
     71 C71        33.2835   -2.5507   -6.0679 C.3       12 UNK         0.0194 
     72 H72        28.8355   -2.2023    4.1779 H         1 UNK         0.0906 
     73 H73        27.3054   -1.3217    4.1980 H         1 UNK         0.0906 
     74 H74        27.3433   -3.0146    3.7019 H         1 UNK         0.0906 
     75 H75        27.1720   -3.2472    1.4892 H         1 UNK         0.3140 
     76 H76        28.7977   -1.8249   -0.3853 H         1 UNK         0.1085 
     77 H77        27.9167   -4.2362   -0.5946 H         1 UNK         0.0836 
     78 H78        26.3599   -3.5783   -0.9988 H         1 UNK         0.0836 
     79 H79        30.2398   -3.1626   -2.0365 H         1 UNK         0.0731 
     80 H80        29.6862   -4.8153   -2.1993 H         1 UNK         0.0731 
     81 H81        31.8293   -2.4988   -3.6672 H         1 UNK         0.1312 
     82 H82        31.8823   -4.2916   -7.5743 H         1 UNK         0.1406 
     83 H83        28.9201   -5.4510   -4.7044 H         1 UNK         0.1631 
     84 H84        29.2141   -6.7608   -6.7146 H         1 UNK         0.0717 
     85 H85        30.5674   -6.4642   -7.7704 H         1 UNK         0.0717 
     86 H86        26.4080   -5.2877   -7.6231 H         1 UNK         0.0934 
     87 H87        27.4728   -4.6751   -6.3952 H         1 UNK         0.0934 
     88 H88        26.6749   -3.1425   -8.9098 H         1 UNK         0.0739 
     89 H89        25.1623   -3.4140   -6.5327 H         1 UNK         0.3093 
     90 H90        22.8169   -1.0928   -7.4595 H         1 UNK         0.0818 
     91 H91        22.0409   -2.4114   -5.5267 H         1 UNK         0.0819 
     92 H92        22.8325   -3.4739   -6.6724 H         1 UNK         0.0819 
     93 H93        23.6631   -2.9915   -5.1925 H         1 UNK         0.0819 
     94 H94        23.1393    0.5055   -5.9478 H         1 UNK         0.3041 
     95 H95        25.6326    1.6469   -4.4076 H         1 UNK         0.0784 
     96 H96        23.4579    2.3910   -5.3084 H         1 UNK         0.0793 
     97 H97        22.5922    1.6140   -3.9861 H         1 UNK         0.0793 
     98 H98        23.6430    2.9891   -3.6757 H         1 UNK         0.0793 
     99 H99        25.9042    1.1197   -2.2789 H         1 UNK         0.3024 
    100 H100       25.1494    1.1536   -0.0576 H         1 UNK         0.1171 
    101 H101       22.7653    0.7977    0.6085 H         1 UNK         0.0786 
    102 H102       23.8767    0.0515    1.7441 H         1 UNK         0.0786 
    103 H103       23.0058   -0.9435    0.5770 H         1 UNK         0.0786 
    104 H104       25.3254   -1.6712    0.4295 H         1 UNK         0.2977 
    105 H105       27.2150   -1.7692   -5.6231 H         1 UNK         0.3127 
    106 H106       29.8718   -0.8674   -6.1922 H         1 UNK         0.0770 
    107 H107       29.2825   -1.0118   -3.8756 H         1 UNK         0.0814 
    108 H108       27.8444   -0.0107   -4.0740 H         1 UNK         0.0814 
    109 H109       29.4460    0.6954   -4.2005 H         1 UNK         0.0814 
    110 H110       26.6854    0.4954   -6.8378 H         1 UNK         0.2983 
    111 H111       27.6682    3.1373   -7.6072 H         1 UNK         0.0947 
    112 H112       25.3191    3.4650   -8.4010 H         1 UNK         0.0806 
    113 H113       25.3766    2.9216   -6.7347 H         1 UNK         0.0806 
    114 H114       24.9421    1.7923   -8.0192 H         1 UNK         0.0806 
    115 H115       26.6044    0.1481   -9.2801 H         1 UNK         0.3000 
    116 H116       26.9910    1.0536  -11.9340 H         1 UNK         0.0850 
    117 H117       26.8868   -1.3608  -12.5123 H         1 UNK         0.0810 
    118 H118       25.6555   -0.9644  -11.3226 H         1 UNK         0.0810 
    119 H119       27.1251   -1.8027  -10.8284 H         1 UNK         0.0810 
    120 H120       29.2478   -0.7164   -9.7495 H         1 UNK         0.3040 
    121 H121       31.4075   -0.7761  -11.6684 H         1 UNK         0.0766 
    122 H122       32.6789   -1.7133   -9.7438 H         1 UNK         0.0812 
    123 H123       31.1102   -2.4936   -9.8763 H         1 UNK         0.0812 
    124 H124       31.3833   -1.2681   -8.6411 H         1 UNK         0.0812 
    125 H125       30.2666    1.6962   -9.5794 H         1 UNK         0.3205 
    126 H126       30.9738    3.6307   -8.7730 H         1 UNK         0.0754 
    127 H127       32.6624    4.9754   -9.9764 H         1 UNK         0.0769 
    128 H128       31.5853    4.2026  -11.1291 H         1 UNK         0.0769 
    129 H129       33.2102    3.5683  -10.8733 H         1 UNK         0.0769 
    130 H130       31.4311    1.6978   -7.1910 H         1 UNK         0.2981 
    131 H131       34.1809    1.1539   -6.5451 H         1 UNK         0.0541 
    132 H132       32.1726    3.8038   -5.5315 H         1 UNK         0.3459 
    133 H133       33.1367    4.2401   -4.1418 H         1 UNK         0.3459 
    134 H134       31.9627   -0.3191   -6.3265 H         1 UNK         0.0612 
    135 H135       31.8785    0.3459   -4.7230 H         1 UNK         0.0612 
    136 H136       33.2078   -2.2073   -7.1005 H         1 UNK         0.0624 
    137 H137       34.1042   -3.2685   -6.0474 H         1 UNK         0.0624 
@<TRIPOS>BOND
     1    1    2 1    
     2    1   72 1    
     3    1   73 1    
     4    1   74 1    
     5    2    3 2    
     6    2    4 am   BACKBONE|DICT|INTERRES
     7    4    5 1    
     8    4   75 1    
     9    5    6 1    
    10    5   35 1    
    11    5   76 1    
    12    6    7 1    
    13    6   77 1    
    14    6   78 1    
    15    7    8 1    
    16    8    9 1    
    17    8   79 1    
    18    8   80 1    
    19    9   10 ar   
    20    9   14 ar   
    21   10   11 ar   
    22   10   81 1    
    23   11   12 ar   
    24   11   71 1    
    25   12   13 ar   
    26   12   82 1    
    27   13   14 ar   
    28   13   15 1    
    29   14   83 1    
    30   15   16 1    
    31   15   84 1    
    32   15   85 1    
    33   16   17 1    
    34   17   18 1    
    35   17   86 1    
    36   17   87 1    
    37   18   19 1    
    38   18   37 1    
    39   18   88 1    
    40   19   20 am   BACKBONE|DICT|INTERRES
    41   19   89 1    
    42   20   21 2    
    43   20   22 1    
    44   22   23 1    
    45   22   24 1    
    46   22   90 1    
    47   23   91 1    
    48   23   92 1    
    49   23   93 1    
    50   24   25 am   BACKBONE|DICT|INTERRES
    51   24   94 1    
    52   25   26 2    
    53   25   27 1    
    54   27   28 1    
    55   27   29 1    
    56   27   95 1    
    57   28   96 1    
    58   28   97 1    
    59   28   98 1    
    60   29   30 am   BACKBONE|DICT|INTERRES
    61   29   99 1    
    62   30   31 2    
    63   30   32 1    
    64   32   33 1    
    65   32   34 1    
    66   32  100 1    
    67   33  101 1    
    68   33  102 1    
    69   33  103 1    
    70   34   35 am   BACKBONE|DICT|INTERRES
    71   34  104 1    
    72   35   36 2    
    73   37   38 2    
    74   37   39 am   BACKBONE|DICT|INTERRES
    75   39   40 1    
    76   39  105 1    
    77   40   41 1    
    78   40   42 1    
    79   40  106 1    
    80   41  107 1    
    81   41  108 1    
    82   41  109 1    
    83   42   43 2    
    84   42   44 am   BACKBONE|DICT|INTERRES
    85   44   45 1    
    86   44  110 1    
    87   45   46 1    
    88   45   47 1    
    89   45  111 1    
    90   46  112 1    
    91   46  113 1    
    92   46  114 1    
    93   47   48 2    
    94   47   49 am   BACKBONE|DICT|INTERRES
    95   49   50 1    
    96   49  115 1    
    97   50   51 1    
    98   50   52 1    
    99   50  116 1    
   100   51  117 1    
   101   51  118 1    
   102   51  119 1    
   103   52   53 2    
   104   52   54 am   BACKBONE|DICT|INTERRES
   105   54   55 1    
   106   54  120 1    
   107   55   56 1    
   108   55   57 1    
   109   55  121 1    
   110   56  122 1    
   111   56  123 1    
   112   56  124 1    
   113   57   58 2    
   114   57   59 am   BACKBONE|DICT|INTERRES
   115   59   60 1    
   116   59  125 1    
   117   60   61 1    
   118   60   62 1    
   119   60  126 1    
   120   61  127 1    
   121   61  128 1    
   122   61  129 1    
   123   62   63 2    
   124   62   64 am   BACKBONE|DICT|INTERRES
   125   64   65 1    
   126   64  130 1    
   127   65   66 1    
   128   65   69 1    
   129   65  131 1    
   130   66   67 am   BACKBONE|DICT|INTERRES
   131   66   68 2    
   132   67  132 1    
   133   67  133 1    
   134   69   70 1    
   135   69  134 1    
   136   69  135 1    
   137   70   71 1    
   138   71  136 1    
   139   71  137 1    
@<TRIPOS>SUBSTRUCTURE
     1 UNK         1 GROUP             0       ****    0 ROOT    
