@<TRIPOS>MOLECULE
3R137
137   139    1
SMALL
USER_CHARGES


@<TRIPOS>ATOM
      1 CA         28.9486   -5.3654   -5.7369 C.3       0 UNK        -0.2020 
      2 C          28.1429   -5.6741   -4.4838 C.2       0 UNK         0.4855 
      3 O          27.7319   -6.8173   -4.2831 O.2       0 UNK        -0.5197 
      4 N          27.9042   -4.6608   -3.6484 N.am      1 UNK        -0.4892 
      5 CA         27.0677   -4.7159   -2.4517 C.3       1 UNK         0.0835 
      6 C6         27.8024   -5.3442   -1.2269 C.3       12 UNK        -0.0855 
      7 S7         28.8311   -4.2430   -0.1868 S.3       12 UNK        -0.2931 
      8 C8         30.4744   -4.3412   -0.9748 C.3       12 UNK         0.0378 
      9 C9         30.6258   -3.4085   -2.1727 C.ar      12 UNK        -0.0802 
     10 C10        31.2555   -3.8623   -3.3366 C.ar      12 UNK        -0.0944 
     11 C11        31.4123   -3.0121   -4.4353 C.ar      12 UNK        -0.0787 
     12 C12        30.9202   -1.7057   -4.3723 C.ar      12 UNK        -0.0862 
     13 C13        30.3111   -1.2294   -3.2093 C.ar      12 UNK        -0.0733 
     14 C14        30.1781   -2.0831   -2.1102 C.ar      12 UNK        -0.0832 
     15 C15        29.8273    0.2129   -3.1349 C.3       12 UNK         0.0240 
     16 S16        28.0525    0.3070   -2.7439 S.3       12 UNK        -0.2522 
     17 C17        27.5178    1.7032   -3.7813 C.3       12 UNK        -0.0967 
     18 CA         27.1822    1.2705   -5.2303 C.3       5 UNK         0.0660 
     19 N          26.1870    0.1841   -5.2726 N.am      5 UNK        -0.4015 
     20 C          25.7269   -0.4344   -6.3711 C.2       4 UNK         0.4946 
     21 O          25.9774   -0.0645   -7.5174 O.2       4 UNK        -0.5353 
     22 CA         24.8502   -1.6797   -6.1886 C.3       4 UNK         0.0277 
     23 CB         25.6828   -2.9467   -6.4488 C.3       4 UNK        -0.1981 
     24 N          24.2347   -1.7620   -4.8628 N.am      4 UNK        -0.4209 
     25 C          23.0565   -1.2064   -4.5434 C.2       3 UNK         0.4942 
     26 O          22.3998   -0.5153   -5.3231 O.2       3 UNK        -0.5208 
     27 CA         22.4889   -1.4777   -3.1370 C.3       3 UNK         0.0250 
     28 CB         21.3897   -2.5510   -3.2046 C.3       3 UNK        -0.1990 
     29 N          23.5033   -1.8984   -2.1687 N.am      3 UNK        -0.4232 
     30 C          24.3585   -1.0661   -1.5612 C.2       2 UNK         0.4993 
     31 O          24.3480    0.1557   -1.7129 O.2       2 UNK        -0.5286 
     32 CA         25.4201   -1.7073   -0.6486 C.3       2 UNK         0.0209 
     33 CB         24.9107   -1.7811    0.7999 C.3       2 UNK        -0.1931 
     34 N          25.8875   -3.0381   -1.0666 N.am      2 UNK        -0.4546 
     35 C          26.4451   -3.3181   -2.2537 C.2       1 UNK         0.5154 
     36 O          26.4585   -2.5194   -3.1937 O.2       1 UNK        -0.5181 
     37 C          26.8484    2.5148   -6.0820 C.2       5 UNK         0.5014 
     38 O          27.7676    3.2499   -6.4440 O.2       5 UNK        -0.5248 
     39 N          25.5637    2.7300   -6.4013 N.am      6 UNK        -0.4434 
     40 CA         25.0991    3.7682   -7.3259 C.3       6 UNK         0.0363 
     41 CB         23.5654    3.8496   -7.2662 C.3       6 UNK        -0.1936 
     42 C          25.5705    3.5473   -8.7774 C.2       6 UNK         0.5081 
     43 O          25.7486    4.5253   -9.5039 O.2       6 UNK        -0.5248 
     44 N          25.7677    2.2810   -9.1678 N.am      7 UNK        -0.4718 
     45 CA         26.3241    1.8751  -10.4584 C.3       7 UNK         0.0273 
     46 CB         25.4495    0.7644  -11.0633 C.3       7 UNK        -0.1935 
     47 C          27.7710    1.3911  -10.2900 C.2       7 UNK         0.5018 
     48 O          28.6401    1.7906  -11.0653 O.2       7 UNK        -0.5186 
     49 N          28.0184    0.5665   -9.2631 N.am      8 UNK        -0.4240 
     50 CA         29.3134   -0.0210   -8.9124 C.3       8 UNK         0.0235 
     51 CB         29.0639   -1.3147   -8.1106 C.3       8 UNK        -0.2000 
     52 C          30.2244    0.9692   -8.1602 C.2       8 UNK         0.4941 
     53 O          30.7941    0.6155   -7.1253 O.2       8 UNK        -0.5273 
     54 N          30.3572    2.1920   -8.6887 N.am      9 UNK        -0.4262 
     55 CA         31.2105    3.2569   -8.1624 C.3       9 UNK         0.0264 
     56 CB         30.9059    4.5651   -8.9121 C.3       9 UNK        -0.1955 
     57 C          32.6912    2.8591   -8.2804 C.2       9 UNK         0.5031 
     58 O          33.2389    2.8858   -9.3842 O.2       9 UNK        -0.5390 
     59 N          33.2767    2.4432   -7.1478 N.am      10 UNK        -0.4204 
     60 CA         34.5921    1.8011   -7.0125 C.3       10 UNK         0.0237 
     61 CB         35.7342    2.7560   -7.4244 C.3       10 UNK        -0.1985 
     62 C          34.6658    0.4254   -7.7124 C.2       10 UNK         0.4970 
     63 O          35.7397    0.0288   -8.1694 O.2       10 UNK        -0.4914 
     64 N          33.5274   -0.2810   -7.7575 N.am      11 UNK        -0.4285 
     65 CA         33.3392   -1.6077   -8.3642 C.3       11 UNK         0.1007 
     66 C          33.5601   -1.6101   -9.9073 C.2       11 UNK         0.5703 
     67 N          33.9750   -2.7209  -10.5035 N.am      11 UNK        -0.7361 
     68 O          33.2915   -0.6223  -10.5876 O.2       11 UNK        -0.4986 
     69 C69        34.0740   -2.7529   -7.5991 C.3       12 UNK        -0.0947 
     70 S70        33.7801   -2.7293   -5.7990 S.3       12 UNK        -0.2240 
     71 C71        32.1283   -3.4841   -5.6901 C.3       12 UNK         0.0194 
     72 H72        29.9179   -5.8606   -5.6909 H         1 UNK         0.0906 
     73 H73        28.4221   -5.7251   -6.6205 H         1 UNK         0.0906 
     74 H74        29.1149   -4.2951   -5.8582 H         1 UNK         0.0906 
     75 H75        28.2222   -3.7240   -3.8674 H         1 UNK         0.3140 
     76 H76        26.2199   -5.3631   -2.6880 H         1 UNK         0.1085 
     77 H77        27.0532   -5.7756   -0.5613 H         1 UNK         0.0836 
     78 H78        28.4048   -6.1964   -1.5450 H         1 UNK         0.0836 
     79 H79        30.6785   -5.3759   -1.2545 H         1 UNK         0.0731 
     80 H80        31.2284   -4.0688   -0.2354 H         1 UNK         0.0731 
     81 H81        31.6316   -4.8751   -3.3853 H         1 UNK         0.1312 
     82 H82        31.0428   -1.0514   -5.2239 H         1 UNK         0.1406 
     83 H83        29.7113   -1.7143   -1.2070 H         1 UNK         0.1631 
     84 H84        30.0248    0.7247   -4.0784 H         1 UNK         0.0717 
     85 H85        30.3916    0.7469   -2.3694 H         1 UNK         0.0717 
     86 H86        26.6435    2.1546   -3.3077 H         1 UNK         0.0934 
     87 H87        28.2981    2.4676   -3.7679 H         1 UNK         0.0934 
     88 H88        28.0915    0.8537   -5.6680 H         1 UNK         0.0739 
     89 H89        25.9576   -0.2218   -4.3750 H         1 UNK         0.3093 
     90 H90        24.0637   -1.6380   -6.9455 H         1 UNK         0.0818 
     91 H91        26.0726   -2.9520   -7.4677 H         1 UNK         0.0819 
     92 H92        26.5387   -3.0162   -5.7777 H         1 UNK         0.0819 
     93 H93        25.0849   -3.8498   -6.3267 H         1 UNK         0.0819 
     94 H94        24.7736   -2.2417   -4.1482 H         1 UNK         0.3041 
     95 H95        22.0342   -0.5491   -2.7846 H         1 UNK         0.0784 
     96 H96        20.5971   -2.2554   -3.8937 H         1 UNK         0.0793 
     97 H97        21.7801   -3.5093   -3.5496 H         1 UNK         0.0793 
     98 H98        20.9264   -2.7069   -2.2301 H         1 UNK         0.0793 
     99 H99        23.5806   -2.8874   -1.9800 H         1 UNK         0.3024 
    100 H100       26.2888   -1.0455   -0.6685 H         1 UNK         0.1171 
    101 H101       25.6951   -2.1141    1.4799 H         1 UNK         0.0786 
    102 H102       24.5785   -0.8017    1.1478 H         1 UNK         0.0786 
    103 H103       24.0670   -2.4655    0.8970 H         1 UNK         0.0786 
    104 H104       25.9226   -3.7452   -0.3463 H         1 UNK         0.2977 
    105 H105       24.8711    2.0795   -6.0595 H         1 UNK         0.3127 
    106 H106       25.5072    4.7240   -6.9902 H         1 UNK         0.0770 
    107 H107       23.0986    2.9123   -7.5722 H         1 UNK         0.0814 
    108 H108       23.1909    4.6314   -7.9286 H         1 UNK         0.0814 
    109 H109       23.2184    4.0864   -6.2602 H         1 UNK         0.0814 
    110 H110       25.6332    1.5378   -8.4872 H         1 UNK         0.2983 
    111 H111       26.3332    2.7172  -11.1541 H         1 UNK         0.0947 
    112 H112       25.8491    0.4313  -12.0221 H         1 UNK         0.0806 
    113 H113       24.4333    1.1165  -11.2406 H         1 UNK         0.0806 
    114 H114       25.3908   -0.1085  -10.4114 H         1 UNK         0.0806 
    115 H115       27.2416    0.3140   -8.6525 H         1 UNK         0.3000 
    116 H116       29.8318   -0.2933   -9.8343 H         1 UNK         0.0850 
    117 H117       29.9935   -1.8487   -7.9212 H         1 UNK         0.0810 
    118 H118       28.4063   -1.9968   -8.6496 H         1 UNK         0.0810 
    119 H119       28.6094   -1.1085   -7.1414 H         1 UNK         0.0810 
    120 H120       29.8833    2.3728   -9.5671 H         1 UNK         0.3040 
    121 H121       30.9588    3.4053   -7.1099 H         1 UNK         0.0766 
    122 H122       29.8671    4.8662   -8.7730 H         1 UNK         0.0812 
    123 H123       31.0868    4.4708   -9.9837 H         1 UNK         0.0812 
    124 H124       31.5322    5.3791   -8.5451 H         1 UNK         0.0812 
    125 H125       32.7090    2.4359   -6.3106 H         1 UNK         0.3205 
    126 H126       34.7135    1.5935   -5.9482 H         1 UNK         0.0754 
    127 H127       36.7067    2.3349   -7.1667 H         1 UNK         0.0769 
    128 H128       35.6530    3.7157   -6.9141 H         1 UNK         0.0769 
    129 H129       35.7391    2.9452   -8.4981 H         1 UNK         0.0769 
    130 H130       32.6807    0.1399   -7.3882 H         1 UNK         0.2981 
    131 H131       32.2727   -1.7969   -8.2626 H         1 UNK         0.0541 
    132 H132       34.1859   -3.5512   -9.9735 H         1 UNK         0.3459 
    133 H133       34.0920   -2.7224  -11.5047 H         1 UNK         0.3459 
    134 H134       35.1509   -2.6843   -7.7611 H         1 UNK         0.0612 
    135 H135       33.7677   -3.7304   -7.9747 H         1 UNK         0.0612 
    136 H136       31.5303   -3.2173   -6.5612 H         1 UNK         0.0624 
    137 H137       32.2288   -4.5703   -5.7026 H         1 UNK         0.0624 
@<TRIPOS>BOND
     1    1    2 1    
     2    1   72 1    
     3    1   73 1    
     4    1   74 1    
     5    2    3 2    
     6    2    4 am   BACKBONE|DICT|INTERRES
     7    4    5 1    
     8    4   75 1    
     9    5    6 1    
    10    5   35 1    
    11    5   76 1    
    12    6    7 1    
    13    6   77 1    
    14    6   78 1    
    15    7    8 1    
    16    8    9 1    
    17    8   79 1    
    18    8   80 1    
    19    9   10 ar   
    20    9   14 ar   
    21   10   11 ar   
    22   10   81 1    
    23   11   12 ar   
    24   11   71 1    
    25   12   13 ar   
    26   12   82 1    
    27   13   14 ar   
    28   13   15 1    
    29   14   83 1    
    30   15   16 1    
    31   15   84 1    
    32   15   85 1    
    33   16   17 1    
    34   17   18 1    
    35   17   86 1    
    36   17   87 1    
    37   18   19 1    
    38   18   37 1    
    39   18   88 1    
    40   19   20 am   BACKBONE|DICT|INTERRES
    41   19   89 1    
    42   20   21 2    
    43   20   22 1    
    44   22   23 1    
    45   22   24 1    
    46   22   90 1    
    47   23   91 1    
    48   23   92 1    
    49   23   93 1    
    50   24   25 am   BACKBONE|DICT|INTERRES
    51   24   94 1    
    52   25   26 2    
    53   25   27 1    
    54   27   28 1    
    55   27   29 1    
    56   27   95 1    
    57   28   96 1    
    58   28   97 1    
    59   28   98 1    
    60   29   30 am   BACKBONE|DICT|INTERRES
    61   29   99 1    
    62   30   31 2    
    63   30   32 1    
    64   32   33 1    
    65   32   34 1    
    66   32  100 1    
    67   33  101 1    
    68   33  102 1    
    69   33  103 1    
    70   34   35 am   BACKBONE|DICT|INTERRES
    71   34  104 1    
    72   35   36 2    
    73   37   38 2    
    74   37   39 am   BACKBONE|DICT|INTERRES
    75   39   40 1    
    76   39  105 1    
    77   40   41 1    
    78   40   42 1    
    79   40  106 1    
    80   41  107 1    
    81   41  108 1    
    82   41  109 1    
    83   42   43 2    
    84   42   44 am   BACKBONE|DICT|INTERRES
    85   44   45 1    
    86   44  110 1    
    87   45   46 1    
    88   45   47 1    
    89   45  111 1    
    90   46  112 1    
    91   46  113 1    
    92   46  114 1    
    93   47   48 2    
    94   47   49 am   BACKBONE|DICT|INTERRES
    95   49   50 1    
    96   49  115 1    
    97   50   51 1    
    98   50   52 1    
    99   50  116 1    
   100   51  117 1    
   101   51  118 1    
   102   51  119 1    
   103   52   53 2    
   104   52   54 am   BACKBONE|DICT|INTERRES
   105   54   55 1    
   106   54  120 1    
   107   55   56 1    
   108   55   57 1    
   109   55  121 1    
   110   56  122 1    
   111   56  123 1    
   112   56  124 1    
   113   57   58 2    
   114   57   59 am   BACKBONE|DICT|INTERRES
   115   59   60 1    
   116   59  125 1    
   117   60   61 1    
   118   60   62 1    
   119   60  126 1    
   120   61  127 1    
   121   61  128 1    
   122   61  129 1    
   123   62   63 2    
   124   62   64 am   BACKBONE|DICT|INTERRES
   125   64   65 1    
   126   64  130 1    
   127   65   66 1    
   128   65   69 1    
   129   65  131 1    
   130   66   67 am   BACKBONE|DICT|INTERRES
   131   66   68 2    
   132   67  132 1    
   133   67  133 1    
   134   69   70 1    
   135   69  134 1    
   136   69  135 1    
   137   70   71 1    
   138   71  136 1    
   139   71  137 1    
@<TRIPOS>SUBSTRUCTURE
     1 UNK         1 GROUP             0       ****    0 ROOT    
