@<TRIPOS>MOLECULE
3R137
137   139    1
SMALL
USER_CHARGES


@<TRIPOS>ATOM
      1 CA         25.4763   -3.3421    1.9301 C.3       0 UNK        -0.2020 
      2 C          25.9319   -4.2026    0.7543 C.2       0 UNK         0.4855 
      3 O          25.4938   -5.3453    0.6392 O.2       0 UNK        -0.5197 
      4 N          26.8042   -3.7150   -0.1401 N.am      1 UNK        -0.4892 
      5 CA         27.4071   -2.3714   -0.1644 C.3       1 UNK         0.0835 
      6 C6         28.6281   -2.3066   -1.1145 C.3       12 UNK        -0.0855 
      7 S7         29.8958   -3.5575   -0.7275 S.3       12 UNK        -0.2931 
      8 C8         31.3350   -2.8882   -1.6307 C.3       12 UNK         0.0378 
      9 C9         31.3691   -3.1273   -3.1441 C.ar      12 UNK        -0.0802 
     10 C10        32.4911   -2.6680   -3.8402 C.ar      12 UNK        -0.0944 
     11 C11        32.6305   -2.8979   -5.2095 C.ar      12 UNK        -0.0787 
     12 C12        31.6140   -3.5627   -5.8983 C.ar      12 UNK        -0.0862 
     13 C13        30.4742   -4.0242   -5.2327 C.ar      12 UNK        -0.0733 
     14 C14        30.3655   -3.8110   -3.8501 C.ar      12 UNK        -0.0832 
     15 C15        29.4354   -4.7903   -6.0590 C.3       12 UNK         0.0240 
     16 S16        27.8773   -5.2630   -5.2232 S.3       12 UNK        -0.2522 
     17 C17        26.9877   -3.6900   -4.9642 C.3       12 UNK        -0.0967 
     18 CA         26.7134   -2.8682   -6.2587 C.3       5 UNK         0.0660 
     19 N          25.4146   -2.2090   -6.2149 N.am      5 UNK        -0.4015 
     20 C          24.5149   -2.1967   -7.2073 C.2       4 UNK         0.4946 
     21 O          24.6060   -2.8818   -8.2265 O.2       4 UNK        -0.5353 
     22 CA         23.3008   -1.2567   -7.0530 C.3       4 UNK         0.0277 
     23 CB         22.0373   -2.0639   -6.7114 C.3       4 UNK        -0.1981 
     24 N          23.4760   -0.2004   -6.0504 N.am      4 UNK        -0.4209 
     25 C          24.4154    0.7558   -6.0871 C.2       3 UNK         0.4942 
     26 O          25.2196    0.8893   -7.0083 O.2       3 UNK        -0.5208 
     27 CA         24.5391    1.6524   -4.8418 C.3       3 UNK         0.0250 
     28 CB         23.6301    2.8846   -4.9723 C.3       3 UNK        -0.1990 
     29 N          24.2442    0.9555   -3.5826 N.am      3 UNK        -0.4232 
     30 C          24.8782   -0.1395   -3.1387 C.2       2 UNK         0.4993 
     31 O          25.7987   -0.6950   -3.7485 O.2       2 UNK        -0.5286 
     32 CA         24.3359   -0.7592   -1.8417 C.3       2 UNK         0.0209 
     33 CB         23.0512   -1.5550   -2.1294 C.3       2 UNK        -0.1931 
     34 N          25.3172   -1.6630   -1.2446 N.am      2 UNK        -0.4546 
     35 C          26.4007   -1.2713   -0.5621 C.2       1 UNK         0.5154 
     36 O          26.6251   -0.1014   -0.2495 O.2       1 UNK        -0.5181 
     37 C          27.7774   -1.7845   -6.5113 C.2       5 UNK         0.5014 
     38 O          28.3421   -1.7297   -7.6031 O.2       5 UNK        -0.5248 
     39 N          28.0431   -0.9542   -5.4931 N.am      6 UNK        -0.4434 
     40 CA         29.2305   -0.1048   -5.4145 C.3       6 UNK         0.0363 
     41 CB         29.4142    0.3975   -3.9749 C.3       6 UNK        -0.1936 
     42 C          29.2354    1.0624   -6.4072 C.2       6 UNK         0.5081 
     43 O          30.2553    1.2885   -7.0552 O.2       6 UNK        -0.5248 
     44 N          28.1148    1.7868   -6.5241 N.am      7 UNK        -0.4718 
     45 CA         27.9976    2.9220   -7.4464 C.3       7 UNK         0.0273 
     46 CB         26.8165    3.8251   -7.0571 C.3       7 UNK        -0.1935 
     47 C          27.8900    2.4538   -8.9044 C.2       7 UNK         0.5018 
     48 O          28.5022    3.0670   -9.7779 O.2       7 UNK        -0.5186 
     49 N          27.1698    1.3453   -9.1290 N.am      8 UNK        -0.4240 
     50 CA         27.0559    0.6598  -10.4190 C.3       8 UNK         0.0235 
     51 CB         26.0505   -0.4949  -10.2974 C.3       8 UNK        -0.2000 
     52 C          28.4082    0.1526  -10.9524 C.2       8 UNK         0.4941 
     53 O          28.6889    0.3184  -12.1398 O.2       8 UNK        -0.5273 
     54 N          29.2334   -0.4198  -10.0644 N.am      9 UNK        -0.4262 
     55 CA         30.6011   -0.8586  -10.3583 C.3       9 UNK         0.0264 
     56 CB         31.0099   -1.9205   -9.3251 C.3       9 UNK        -0.1955 
     57 C          31.6316    0.2896  -10.3964 C.2       9 UNK         0.5031 
     58 O          32.7682    0.0476  -10.8055 O.2       9 UNK        -0.5390 
     59 N          31.2309    1.4998   -9.9751 N.am      10 UNK        -0.4204 
     60 CA         32.0360    2.7210   -9.8399 C.3       10 UNK         0.0237 
     61 CB         32.5260    3.2213  -11.2158 C.3       10 UNK        -0.1985 
     62 C          33.1678    2.5830   -8.8007 C.2       10 UNK         0.4970 
     63 O          34.2712    3.0894   -9.0144 O.2       10 UNK        -0.4914 
     64 N          32.8633    1.9061   -7.6887 N.am      11 UNK        -0.4285 
     65 CA         33.7655    1.6659   -6.5531 C.3       11 UNK         0.1007 
     66 C          33.7711    2.8155   -5.5058 C.2       11 UNK         0.5703 
     67 N          32.8892    3.8050   -5.5943 N.am      11 UNK        -0.7361 
     68 O          34.6030    2.8175   -4.6015 O.2       11 UNK        -0.4986 
     69 C69        33.4685    0.2993   -5.8807 C.3       12 UNK        -0.0947 
     70 S70        33.6566   -1.0839   -7.0517 S.3       12 UNK        -0.2240 
     71 C71        33.9075   -2.4907   -5.9317 C.3       12 UNK         0.0194 
     72 H72        26.3238   -2.9171    2.4661 H         1 UNK         0.0906 
     73 H73        24.8275   -2.5344    1.5935 H         1 UNK         0.0906 
     74 H74        24.9109   -3.9432    2.6421 H         1 UNK         0.0906 
     75 H75        27.1203   -4.3306   -0.8761 H         1 UNK         0.3140 
     76 H76        27.7619   -2.1345    0.8404 H         1 UNK         0.1085 
     77 H77        28.3200   -2.4318   -2.1526 H         1 UNK         0.0836 
     78 H78        29.0927   -1.3203   -1.0518 H         1 UNK         0.0836 
     79 H79        32.2279   -3.3420   -1.1981 H         1 UNK         0.0731 
     80 H80        31.4151   -1.8181   -1.4339 H         1 UNK         0.0731 
     81 H81        33.2799   -2.1575   -3.3041 H         1 UNK         0.1312 
     82 H82        31.7256   -3.7427   -6.9591 H         1 UNK         0.1406 
     83 H83        29.5099   -4.1994   -3.3210 H         1 UNK         0.1631 
     84 H84        29.9063   -5.7145   -6.3964 H         1 UNK         0.0717 
     85 H85        29.2034   -4.2347   -6.9673 H         1 UNK         0.0717 
     86 H86        26.0371   -3.9734   -4.5090 H         1 UNK         0.0934 
     87 H87        27.4953   -3.1160   -4.1906 H         1 UNK         0.0934 
     88 H88        26.7378   -3.5526   -7.1094 H         1 UNK         0.0739 
     89 H89        25.2720   -1.5932   -5.4214 H         1 UNK         0.3093 
     90 H90        23.1495   -0.7704   -8.0190 H         1 UNK         0.0818 
     91 H91        21.1520   -1.4281   -6.6907 H         1 UNK         0.0819 
     92 H92        21.8567   -2.8406   -7.4560 H         1 UNK         0.0819 
     93 H93        22.1223   -2.5564   -5.7418 H         1 UNK         0.0819 
     94 H94        22.8614   -0.2306   -5.2503 H         1 UNK         0.3041 
     95 H95        25.5737    1.9958   -4.7875 H         1 UNK         0.0784 
     96 H96        23.8268    3.4233   -5.9000 H         1 UNK         0.0793 
     97 H97        22.5742    2.6108   -4.9749 H         1 UNK         0.0793 
     98 H98        23.7933    3.5861   -4.1538 H         1 UNK         0.0793 
     99 H99        23.4941    1.3396   -3.0252 H         1 UNK         0.3024 
    100 H100       24.1145    0.0429   -1.1335 H         1 UNK         0.1171 
    101 H101       22.6584   -2.0130   -1.2212 H         1 UNK         0.0786 
    102 H102       22.2658   -0.9108   -2.5267 H         1 UNK         0.0786 
    103 H103       23.2211   -2.3498   -2.8573 H         1 UNK         0.0786 
    104 H104       25.2355   -2.6420   -1.4772 H         1 UNK         0.2977 
    105 H105       27.4321   -0.9672   -4.6801 H         1 UNK         0.3127 
    106 H106       30.0934   -0.7305   -5.6565 H         1 UNK         0.0770 
    107 H107       28.5390    0.9426   -3.6190 H         1 UNK         0.0814 
    108 H108       30.2727    1.0667   -3.9001 H         1 UNK         0.0814 
    109 H109       29.5962   -0.4325   -3.2933 H         1 UNK         0.0814 
    110 H110       27.2835    1.4957   -6.0305 H         1 UNK         0.2983 
    111 H111       28.9077    3.5206   -7.3600 H         1 UNK         0.0947 
    112 H112       26.8344    4.7481   -7.6380 H         1 UNK         0.0806 
    113 H113       26.8551    4.1052   -6.0044 H         1 UNK         0.0806 
    114 H114       25.8554    3.3511   -7.2482 H         1 UNK         0.0806 
    115 H115       26.6486    0.9545   -8.3486 H         1 UNK         0.3000 
    116 H116       26.6644    1.3811  -11.1394 H         1 UNK         0.0850 
    117 H117       25.9066   -0.9914  -11.2579 H         1 UNK         0.0810 
    118 H118       25.0747   -0.1406   -9.9644 H         1 UNK         0.0810 
    119 H119       26.3909   -1.2502   -9.5881 H         1 UNK         0.0810 
    120 H120       28.8980   -0.5968   -9.1202 H         1 UNK         0.3040 
    121 H121       30.6098   -1.3286  -11.3439 H         1 UNK         0.0766 
    122 H122       30.9878   -1.5169   -8.3119 H         1 UNK         0.0812 
    123 H123       32.0206   -2.2859   -9.5111 H         1 UNK         0.0812 
    124 H124       30.3424   -2.7816   -9.3547 H         1 UNK         0.0812 
    125 H125       30.2744    1.5828   -9.6555 H         1 UNK         0.3205 
    126 H126       31.3590    3.4784   -9.4422 H         1 UNK         0.0754 
    127 H127       32.9992    4.2001  -11.1297 H         1 UNK         0.0769 
    128 H128       31.6976    3.3236  -11.9169 H         1 UNK         0.0769 
    129 H129       33.2584    2.5448  -11.6573 H         1 UNK         0.0769 
    130 H130       31.9105    1.5639   -7.5655 H         1 UNK         0.2981 
    131 H131       34.7857    1.6193   -6.9385 H         1 UNK         0.0541 
    132 H132       32.1999    3.8070   -6.3282 H         1 UNK         0.3459 
    133 H133       32.9089    4.5475   -4.9135 H         1 UNK         0.3459 
    134 H134       32.4558    0.2771   -5.4746 H         1 UNK         0.0612 
    135 H135       34.1447    0.1312   -5.0406 H         1 UNK         0.0612 
    136 H136       34.2680   -3.3376   -6.5172 H         1 UNK         0.0624 
    137 H137       34.7023   -2.2538   -5.2228 H         1 UNK         0.0624 
@<TRIPOS>BOND
     1    1    2 1    
     2    1   72 1    
     3    1   73 1    
     4    1   74 1    
     5    2    3 2    
     6    2    4 am   BACKBONE|DICT|INTERRES
     7    4    5 1    
     8    4   75 1    
     9    5    6 1    
    10    5   35 1    
    11    5   76 1    
    12    6    7 1    
    13    6   77 1    
    14    6   78 1    
    15    7    8 1    
    16    8    9 1    
    17    8   79 1    
    18    8   80 1    
    19    9   10 ar   
    20    9   14 ar   
    21   10   11 ar   
    22   10   81 1    
    23   11   12 ar   
    24   11   71 1    
    25   12   13 ar   
    26   12   82 1    
    27   13   14 ar   
    28   13   15 1    
    29   14   83 1    
    30   15   16 1    
    31   15   84 1    
    32   15   85 1    
    33   16   17 1    
    34   17   18 1    
    35   17   86 1    
    36   17   87 1    
    37   18   19 1    
    38   18   37 1    
    39   18   88 1    
    40   19   20 am   BACKBONE|DICT|INTERRES
    41   19   89 1    
    42   20   21 2    
    43   20   22 1    
    44   22   23 1    
    45   22   24 1    
    46   22   90 1    
    47   23   91 1    
    48   23   92 1    
    49   23   93 1    
    50   24   25 am   BACKBONE|DICT|INTERRES
    51   24   94 1    
    52   25   26 2    
    53   25   27 1    
    54   27   28 1    
    55   27   29 1    
    56   27   95 1    
    57   28   96 1    
    58   28   97 1    
    59   28   98 1    
    60   29   30 am   BACKBONE|DICT|INTERRES
    61   29   99 1    
    62   30   31 2    
    63   30   32 1    
    64   32   33 1    
    65   32   34 1    
    66   32  100 1    
    67   33  101 1    
    68   33  102 1    
    69   33  103 1    
    70   34   35 am   BACKBONE|DICT|INTERRES
    71   34  104 1    
    72   35   36 2    
    73   37   38 2    
    74   37   39 am   BACKBONE|DICT|INTERRES
    75   39   40 1    
    76   39  105 1    
    77   40   41 1    
    78   40   42 1    
    79   40  106 1    
    80   41  107 1    
    81   41  108 1    
    82   41  109 1    
    83   42   43 2    
    84   42   44 am   BACKBONE|DICT|INTERRES
    85   44   45 1    
    86   44  110 1    
    87   45   46 1    
    88   45   47 1    
    89   45  111 1    
    90   46  112 1    
    91   46  113 1    
    92   46  114 1    
    93   47   48 2    
    94   47   49 am   BACKBONE|DICT|INTERRES
    95   49   50 1    
    96   49  115 1    
    97   50   51 1    
    98   50   52 1    
    99   50  116 1    
   100   51  117 1    
   101   51  118 1    
   102   51  119 1    
   103   52   53 2    
   104   52   54 am   BACKBONE|DICT|INTERRES
   105   54   55 1    
   106   54  120 1    
   107   55   56 1    
   108   55   57 1    
   109   55  121 1    
   110   56  122 1    
   111   56  123 1    
   112   56  124 1    
   113   57   58 2    
   114   57   59 am   BACKBONE|DICT|INTERRES
   115   59   60 1    
   116   59  125 1    
   117   60   61 1    
   118   60   62 1    
   119   60  126 1    
   120   61  127 1    
   121   61  128 1    
   122   61  129 1    
   123   62   63 2    
   124   62   64 am   BACKBONE|DICT|INTERRES
   125   64   65 1    
   126   64  130 1    
   127   65   66 1    
   128   65   69 1    
   129   65  131 1    
   130   66   67 am   BACKBONE|DICT|INTERRES
   131   66   68 2    
   132   67  132 1    
   133   67  133 1    
   134   69   70 1    
   135   69  134 1    
   136   69  135 1    
   137   70   71 1    
   138   71  136 1    
   139   71  137 1    
@<TRIPOS>SUBSTRUCTURE
     1 UNK         1 GROUP             0       ****    0 ROOT    
