@<TRIPOS>MOLECULE
3R137
137   139    1
SMALL
USER_CHARGES


@<TRIPOS>ATOM
      1 CA         25.7677   -4.4008   -1.0376 C.3       0 UNK        -0.2020 
      2 C          26.3152   -3.5755    0.1166 C.2       0 UNK         0.4855 
      3 O          25.7697   -3.6226    1.2189 O.2       0 UNK        -0.5197 
      4 N          27.4030   -2.8360   -0.1294 N.am      1 UNK        -0.4892 
      5 CA         28.0871   -1.9745    0.8411 C.3       1 UNK         0.0835 
      6 C6         29.5612   -1.6388    0.4584 C.3       12 UNK        -0.0855 
      7 S7         29.9097   -1.5254   -1.3339 S.3       12 UNK        -0.2931 
      8 C8         30.5122   -3.2103   -1.6648 C.3       12 UNK         0.0378 
      9 C9         30.4471   -3.5411   -3.1475 C.ar      12 UNK        -0.0802 
     10 C10        31.5088   -3.2003   -3.9884 C.ar      12 UNK        -0.0944 
     11 C11        31.4761   -3.5312   -5.3462 C.ar      12 UNK        -0.0787 
     12 C12        30.3614   -4.2022   -5.8653 C.ar      12 UNK        -0.0862 
     13 C13        29.2982   -4.5639   -5.0291 C.ar      12 UNK        -0.0733 
     14 C14        29.3443   -4.2217   -3.6737 C.ar      12 UNK        -0.0832 
     15 C15        28.1368   -5.3993   -5.5551 C.3       12 UNK         0.0240 
     16 S16        26.6633   -4.4012   -5.9443 S.3       12 UNK        -0.2522 
     17 C17        26.7958   -4.2032   -7.7613 C.3       12 UNK        -0.0967 
     18 CA         26.5470   -2.7603   -8.2707 C.3       5 UNK         0.0660 
     19 N          25.2799   -2.2029   -7.7861 N.am      5 UNK        -0.4015 
     20 C          24.7484   -1.0368   -8.1807 C.2       4 UNK         0.4946 
     21 O          25.2338   -0.3232   -9.0566 O.2       4 UNK        -0.5353 
     22 CA         23.4843   -0.5531   -7.4476 C.3       4 UNK         0.0277 
     23 CB         22.2236   -1.0886   -8.1447 C.3       4 UNK        -0.1981 
     24 N          23.4367   -0.8891   -6.0192 N.am      4 UNK        -0.4209 
     25 C          24.3799   -0.5821   -5.1179 C.2       3 UNK         0.4942 
     26 O          25.4380   -0.0094   -5.3983 O.2       3 UNK        -0.5208 
     27 CA         24.1072   -1.0053   -3.6680 C.3       3 UNK         0.0250 
     28 CB         23.8596   -2.5209   -3.5400 C.3       3 UNK        -0.1990 
     29 N          25.2634   -0.6218   -2.8673 N.am      3 UNK        -0.4232 
     30 C          25.2770   -0.3519   -1.5604 C.2       2 UNK         0.4993 
     31 O          24.2893   -0.4287   -0.8258 O.2       2 UNK        -0.5286 
     32 CA         26.6337    0.0983   -1.0010 C.3       2 UNK         0.0209 
     33 CB         26.9575    1.5312   -1.4611 C.3       2 UNK        -0.1931 
     34 N          26.6325    0.0747    0.4616 N.am      2 UNK        -0.4546 
     35 C          27.2600   -0.7500    1.3156 C.2       1 UNK         0.5154 
     36 O          27.1737   -0.5565    2.5281 O.2       1 UNK        -0.5181 
     37 C          27.7427   -1.8362   -7.9726 C.2       5 UNK         0.5014 
     38 O          28.5025   -1.5114   -8.8859 O.2       5 UNK        -0.5248 
     39 N          27.8533   -1.4032   -6.7096 N.am      6 UNK        -0.4434 
     40 CA         28.8920   -0.5004   -6.2209 C.3       6 UNK         0.0363 
     41 CB         28.8184   -0.4018   -4.6902 C.3       6 UNK        -0.1936 
     42 C          28.7985    0.8907   -6.8568 C.2       6 UNK         0.5081 
     43 O          29.8321    1.4779   -7.1725 O.2       6 UNK        -0.5248 
     44 N          27.5658    1.3766   -7.0554 N.am      7 UNK        -0.4718 
     45 CA         27.2746    2.6329   -7.7437 C.3       7 UNK         0.0273 
     46 CB         25.7925    2.9937   -7.5561 C.3       7 UNK        -0.1935 
     47 C          27.6509    2.5870   -9.2344 C.2       7 UNK         0.5018 
     48 O          28.3201    3.5038   -9.7111 O.2       7 UNK        -0.5186 
     49 N          27.2341    1.5224   -9.9365 N.am      8 UNK        -0.4240 
     50 CA         27.4883    1.3178  -11.3653 C.3       8 UNK         0.0235 
     51 CB         26.6403    0.1459  -11.8857 C.3       8 UNK        -0.2000 
     52 C          28.9719    1.0939  -11.6929 C.2       8 UNK         0.4941 
     53 O          29.4738    1.6925  -12.6451 O.2       8 UNK        -0.5273 
     54 N          29.6481    0.2470  -10.9045 N.am      9 UNK        -0.4262 
     55 CA         31.0709   -0.0643  -11.0724 C.3       9 UNK         0.0264 
     56 CB         31.3521   -1.4550  -10.4836 C.3       9 UNK        -0.1955 
     57 C          32.0126    0.9976  -10.4718 C.2       9 UNK         0.5031 
     58 O          33.2144    0.9334  -10.7358 O.2       9 UNK        -0.5390 
     59 N          31.4650    1.9442   -9.6928 N.am      10 UNK        -0.4204 
     60 CA         32.1518    3.0249   -8.9745 C.3       10 UNK         0.0237 
     61 CB         32.7782    4.0359   -9.9590 C.3       10 UNK        -0.1985 
     62 C          33.1507    2.4835   -7.9336 C.2       10 UNK         0.4970 
     63 O          34.3170    2.8829   -7.9202 O.2       10 UNK        -0.4914 
     64 N          32.6650    1.5676   -7.0881 N.am      11 UNK        -0.4285 
     65 CA         33.4415    0.8962   -6.0329 C.3       11 UNK         0.1007 
     66 C          33.7273    1.7813   -4.7852 C.2       11 UNK         0.5703 
     67 N          33.0797    2.9288   -4.6178 N.am      11 UNK        -0.7361 
     68 O          34.5621    1.4231   -3.9577 O.2       11 UNK        -0.4986 
     69 C69        32.8039   -0.4551   -5.6153 C.3       12 UNK        -0.0947 
     70 S70        32.5750   -1.5924   -7.0225 S.3       12 UNK        -0.2240 
     71 C71        32.6791   -3.2250   -6.2297 C.3       12 UNK         0.0194 
     72 H72        26.0835   -5.4390   -0.9385 H         1 UNK         0.0906 
     73 H73        24.6785   -4.3778   -1.0337 H         1 UNK         0.0906 
     74 H74        26.1115   -4.0279   -2.0021 H         1 UNK         0.0906 
     75 H75        27.8183   -2.8393   -1.0497 H         1 UNK         0.3140 
     76 H76        28.1685   -2.5893    1.7414 H         1 UNK         0.1085 
     77 H77        29.8875   -0.7079    0.9267 H         1 UNK         0.0836 
     78 H78        30.2205   -2.4003    0.8787 H         1 UNK         0.0836 
     79 H79        31.5375   -3.3023   -1.3028 H         1 UNK         0.0731 
     80 H80        29.9244   -3.9348   -1.0990 H         1 UNK         0.0731 
     81 H81        32.3704   -2.6917   -3.5786 H         1 UNK         0.1312 
     82 H82        30.3397   -4.4748   -6.9116 H         1 UNK         0.1406 
     83 H83        28.5296   -4.5108   -3.0244 H         1 UNK         0.1631 
     84 H84        27.8566   -6.1330   -4.7977 H         1 UNK         0.0717 
     85 H85        28.4437   -5.9838   -6.4235 H         1 UNK         0.0717 
     86 H86        27.7665   -4.5605   -8.1108 H         1 UNK         0.0934 
     87 H87        26.0643   -4.8738   -8.2150 H         1 UNK         0.0934 
     88 H88        26.4651   -2.8126   -9.3587 H         1 UNK         0.0739 
     89 H89        24.8202   -2.7199   -7.0513 H         1 UNK         0.3093 
     90 H90        23.4713    0.5361   -7.5177 H         1 UNK         0.0818 
     91 H91        21.3183   -0.6595   -7.7149 H         1 UNK         0.0819 
     92 H92        22.2267   -0.8335   -9.2056 H         1 UNK         0.0819 
     93 H93        22.1499   -2.1744   -8.0711 H         1 UNK         0.0819 
     94 H94        22.6008   -1.3568   -5.6989 H         1 UNK         0.3041 
     95 H95        23.2290   -0.4568   -3.3208 H         1 UNK         0.0784 
     96 H96        22.9945   -2.8407   -4.1212 H         1 UNK         0.0793 
     97 H97        24.7177   -3.1001   -3.8822 H         1 UNK         0.0793 
     98 H98        23.6585   -2.7958   -2.5053 H         1 UNK         0.0793 
     99 H99        26.0819   -0.4281   -3.4302 H         1 UNK         0.3024 
    100 H100       27.3919   -0.5636   -1.4053 H         1 UNK         0.1171 
    101 H101       26.2139    2.2472   -1.1085 H         1 UNK         0.0786 
    102 H102       27.9318    1.8515   -1.0909 H         1 UNK         0.0786 
    103 H103       26.9901    1.6058   -2.5487 H         1 UNK         0.0786 
    104 H104       26.0341    0.7748    0.8746 H         1 UNK         0.2977 
    105 H105       27.1542   -1.6964   -6.0429 H         1 UNK         0.3127 
    106 H106       29.8529   -0.9345   -6.4947 H         1 UNK         0.0770 
    107 H107       27.8947    0.0691   -4.3578 H         1 UNK         0.0814 
    108 H108       29.6423    0.1938   -4.2961 H         1 UNK         0.0814 
    109 H109       28.8817   -1.3860   -4.2289 H         1 UNK         0.0814 
    110 H110       26.7763    0.8339   -6.7192 H         1 UNK         0.2983 
    111 H111       27.8758    3.4150   -7.2746 H         1 UNK         0.0947 
    112 H112       25.5664    3.9583   -8.0123 H         1 UNK         0.0806 
    113 H113       25.5318    3.0640   -6.4998 H         1 UNK         0.0806 
    114 H114       25.1346    2.2552   -8.0138 H         1 UNK         0.0806 
    115 H115       26.6534    0.8234   -9.4764 H         1 UNK         0.3000 
    116 H116       27.1698    2.2217  -11.8890 H         1 UNK         0.0850 
    117 H117       26.8140   -0.0231  -12.9492 H         1 UNK         0.0810 
    118 H118       25.5754    0.3419  -11.7586 H         1 UNK         0.0810 
    119 H119       26.8726   -0.7830  -11.3629 H         1 UNK         0.0810 
    120 H120       29.1589   -0.2426  -10.1566 H         1 UNK         0.3040 
    121 H121       31.2938   -0.1110  -12.1406 H         1 UNK         0.0766 
    122 H122       31.0785   -1.5023   -9.4310 H         1 UNK         0.0812 
    123 H123       32.4088   -1.7143  -10.5607 H         1 UNK         0.0812 
    124 H124       30.7879   -2.2271  -11.0064 H         1 UNK         0.0812 
    125 H125       30.4724    1.8750   -9.5102 H         1 UNK         0.3205 
    126 H126       31.3797    3.5527   -8.4124 H         1 UNK         0.0754 
    127 H127       33.1905    4.8936   -9.4262 H         1 UNK         0.0769 
    128 H128       32.0351    4.4163  -10.6599 H         1 UNK         0.0769 
    129 H129       33.5894    3.5931  -10.5377 H         1 UNK         0.0769 
    130 H130       31.6747    1.3393   -7.1402 H         1 UNK         0.2981 
    131 H131       34.4210    0.6663   -6.4567 H         1 UNK         0.0541 
    132 H132       32.3911    3.2280   -5.2890 H         1 UNK         0.3459 
    133 H133       33.2788    3.4951   -3.8085 H         1 UNK         0.3459 
    134 H134       31.8367   -0.2943   -5.1385 H         1 UNK         0.0612 
    135 H135       33.4347   -0.9501   -4.8752 H         1 UNK         0.0612 
    136 H136       33.6022   -3.2895   -5.6516 H         1 UNK         0.0624 
    137 H137       32.7613   -3.9818   -7.0111 H         1 UNK         0.0624 
@<TRIPOS>BOND
     1    1    2 1    
     2    1   72 1    
     3    1   73 1    
     4    1   74 1    
     5    2    3 2    
     6    2    4 am   BACKBONE|DICT|INTERRES
     7    4    5 1    
     8    4   75 1    
     9    5    6 1    
    10    5   35 1    
    11    5   76 1    
    12    6    7 1    
    13    6   77 1    
    14    6   78 1    
    15    7    8 1    
    16    8    9 1    
    17    8   79 1    
    18    8   80 1    
    19    9   10 ar   
    20    9   14 ar   
    21   10   11 ar   
    22   10   81 1    
    23   11   12 ar   
    24   11   71 1    
    25   12   13 ar   
    26   12   82 1    
    27   13   14 ar   
    28   13   15 1    
    29   14   83 1    
    30   15   16 1    
    31   15   84 1    
    32   15   85 1    
    33   16   17 1    
    34   17   18 1    
    35   17   86 1    
    36   17   87 1    
    37   18   19 1    
    38   18   37 1    
    39   18   88 1    
    40   19   20 am   BACKBONE|DICT|INTERRES
    41   19   89 1    
    42   20   21 2    
    43   20   22 1    
    44   22   23 1    
    45   22   24 1    
    46   22   90 1    
    47   23   91 1    
    48   23   92 1    
    49   23   93 1    
    50   24   25 am   BACKBONE|DICT|INTERRES
    51   24   94 1    
    52   25   26 2    
    53   25   27 1    
    54   27   28 1    
    55   27   29 1    
    56   27   95 1    
    57   28   96 1    
    58   28   97 1    
    59   28   98 1    
    60   29   30 am   BACKBONE|DICT|INTERRES
    61   29   99 1    
    62   30   31 2    
    63   30   32 1    
    64   32   33 1    
    65   32   34 1    
    66   32  100 1    
    67   33  101 1    
    68   33  102 1    
    69   33  103 1    
    70   34   35 am   BACKBONE|DICT|INTERRES
    71   34  104 1    
    72   35   36 2    
    73   37   38 2    
    74   37   39 am   BACKBONE|DICT|INTERRES
    75   39   40 1    
    76   39  105 1    
    77   40   41 1    
    78   40   42 1    
    79   40  106 1    
    80   41  107 1    
    81   41  108 1    
    82   41  109 1    
    83   42   43 2    
    84   42   44 am   BACKBONE|DICT|INTERRES
    85   44   45 1    
    86   44  110 1    
    87   45   46 1    
    88   45   47 1    
    89   45  111 1    
    90   46  112 1    
    91   46  113 1    
    92   46  114 1    
    93   47   48 2    
    94   47   49 am   BACKBONE|DICT|INTERRES
    95   49   50 1    
    96   49  115 1    
    97   50   51 1    
    98   50   52 1    
    99   50  116 1    
   100   51  117 1    
   101   51  118 1    
   102   51  119 1    
   103   52   53 2    
   104   52   54 am   BACKBONE|DICT|INTERRES
   105   54   55 1    
   106   54  120 1    
   107   55   56 1    
   108   55   57 1    
   109   55  121 1    
   110   56  122 1    
   111   56  123 1    
   112   56  124 1    
   113   57   58 2    
   114   57   59 am   BACKBONE|DICT|INTERRES
   115   59   60 1    
   116   59  125 1    
   117   60   61 1    
   118   60   62 1    
   119   60  126 1    
   120   61  127 1    
   121   61  128 1    
   122   61  129 1    
   123   62   63 2    
   124   62   64 am   BACKBONE|DICT|INTERRES
   125   64   65 1    
   126   64  130 1    
   127   65   66 1    
   128   65   69 1    
   129   65  131 1    
   130   66   67 am   BACKBONE|DICT|INTERRES
   131   66   68 2    
   132   67  132 1    
   133   67  133 1    
   134   69   70 1    
   135   69  134 1    
   136   69  135 1    
   137   70   71 1    
   138   71  136 1    
   139   71  137 1    
@<TRIPOS>SUBSTRUCTURE
     1 UNK         1 GROUP             0       ****    0 ROOT    
