@<TRIPOS>MOLECULE
3R137
137   139    1
SMALL
USER_CHARGES


@<TRIPOS>ATOM
      1 CA         30.3399   -7.6423   -5.3977 C.3       0 UNK        -0.2020 
      2 C          29.6677   -7.1774   -4.1145 C.2       0 UNK         0.4855 
      3 O          30.0511   -7.6118   -3.0282 O.2       0 UNK        -0.5197 
      4 N          28.6683   -6.2990   -4.2303 N.am      1 UNK        -0.4892 
      5 CA         27.8928   -5.7398   -3.1272 C.3       1 UNK         0.0835 
      6 C6         28.6709   -4.6023   -2.4101 C.3       12 UNK        -0.0855 
      7 S7         27.7560   -3.7760   -1.0626 S.3       12 UNK        -0.2931 
      8 C8         29.1055   -2.9548   -0.1654 C.3       12 UNK         0.0378 
      9 C9         29.6372   -1.7365   -0.9083 C.ar      12 UNK        -0.0802 
     10 C10        30.7277   -1.8582   -1.7740 C.ar      12 UNK        -0.0944 
     11 C11        31.2856   -0.7346   -2.3926 C.ar      12 UNK        -0.0787 
     12 C12        30.7363    0.5264   -2.1238 C.ar      12 UNK        -0.0862 
     13 C13        29.6350    0.6631   -1.2712 C.ar      12 UNK        -0.0733 
     14 C14        29.0819   -0.4750   -0.6772 C.ar      12 UNK        -0.0832 
     15 C15        29.0899    2.0431   -0.9222 C.3       12 UNK         0.0240 
     16 S16        27.8177    2.6174   -2.0915 S.3       12 UNK        -0.2522 
     17 C17        28.8411    3.2126   -3.4878 C.3       12 UNK        -0.0967 
     18 CA         28.4958    2.5545   -4.8480 C.3       5 UNK         0.0660 
     19 N          28.3202    1.1052   -4.7331 N.am      5 UNK        -0.4015 
     20 C          28.1976    0.2470   -5.7517 C.2       4 UNK         0.4946 
     21 O          28.3397    0.5685   -6.9312 O.2       4 UNK        -0.5353 
     22 CA         27.8047   -1.2020   -5.4078 C.3       4 UNK         0.0277 
     23 CB         29.0473   -2.1035   -5.3738 C.3       4 UNK        -0.1981 
     24 N          27.0498   -1.3709   -4.1574 N.am      4 UNK        -0.4209 
     25 C          25.9072   -0.7437   -3.8393 C.2       3 UNK         0.4942 
     26 O          25.3905    0.1284   -4.5379 O.2       3 UNK        -0.5208 
     27 CA         25.2435   -1.1756   -2.5205 C.3       3 UNK         0.0250 
     28 CB         23.9961   -0.3373   -2.1679 C.3       3 UNK        -0.1990 
     29 N          24.9398   -2.6115   -2.5190 N.am      3 UNK        -0.4232 
     30 C          24.1384   -3.2853   -3.3622 C.2       2 UNK         0.4993 
     31 O          23.4418   -2.7581   -4.2310 O.2       2 UNK        -0.5286 
     32 CA         24.1365   -4.8205   -3.2013 C.3       2 UNK         0.0209 
     33 CB         23.4729   -5.5561   -4.3864 C.3       2 UNK        -0.1931 
     34 N          25.4804   -5.3544   -2.9315 N.am      2 UNK        -0.4546 
     35 C          26.5581   -5.2661   -3.7272 C.2       1 UNK         0.5154 
     36 O          26.5448   -4.8051   -4.8719 O.2       1 UNK        -0.5181 
     37 C          27.3138    3.2797   -5.5314 C.2       5 UNK         0.5014 
     38 O          27.5397    4.3446   -6.1074 O.2       5 UNK        -0.5248 
     39 N          26.0954    2.7154   -5.4865 N.am      6 UNK        -0.4434 
     40 CA         24.9237    3.2558   -6.1847 C.3       6 UNK         0.0363 
     41 CB         23.6365    2.6476   -5.6052 C.3       6 UNK        -0.1936 
     42 C          25.0002    3.0232   -7.7030 C.2       6 UNK         0.5081 
     43 O          24.5662    3.8835   -8.4694 O.2       6 UNK        -0.5248 
     44 N          25.5744    1.8818   -8.1106 N.am      7 UNK        -0.4718 
     45 CA         25.9173    1.5839   -9.5045 C.3       7 UNK         0.0273 
     46 CB         26.0561    0.0635   -9.6804 C.3       7 UNK        -0.1935 
     47 C          27.2075    2.2990   -9.9428 C.2       7 UNK         0.5018 
     48 O          27.3694    2.5841  -11.1299 O.2       7 UNK        -0.5186 
     49 N          28.1032    2.5552   -8.9781 N.am      8 UNK        -0.4240 
     50 CA         29.4053    3.2253   -9.0554 C.3       8 UNK         0.0235 
     51 CB         29.2955    4.6504   -9.6307 C.3       8 UNK        -0.2000 
     52 C          30.4651    2.3911   -9.7840 C.2       8 UNK         0.4941 
     53 O          31.5169    2.1185   -9.2063 O.2       8 UNK        -0.5273 
     54 N          30.1558    1.9549  -11.0113 N.am      9 UNK        -0.4262 
     55 CA         31.0068    1.1091  -11.8536 C.3       9 UNK         0.0264 
     56 CB         30.3763    0.9948  -13.2508 C.3       9 UNK        -0.1955 
     57 C          31.2713   -0.2893  -11.2656 C.2       9 UNK         0.5031 
     58 O          32.2960   -0.8916  -11.5881 O.2       9 UNK        -0.5390 
     59 N          30.3555   -0.7763  -10.4158 N.am      10 UNK        -0.4204 
     60 CA         30.4915   -2.0344   -9.6818 C.3       10 UNK         0.0237 
     61 CB         29.1215   -2.4543   -9.1250 C.3       10 UNK        -0.1985 
     62 C          31.5404   -1.9550   -8.5585 C.2       10 UNK         0.4970 
     63 O          32.2566   -2.9332   -8.3431 O.2       10 UNK        -0.4914 
     64 N          31.6097   -0.8088   -7.8665 N.am      11 UNK        -0.4285 
     65 CA         32.6125   -0.5335   -6.8287 C.3       11 UNK         0.1007 
     66 C          33.9504   -0.0233   -7.4332 C.2       11 UNK         0.5703 
     67 N          33.9219    0.8653   -8.4186 N.am      11 UNK        -0.7361 
     68 O          35.0242   -0.4574   -7.0228 O.2       11 UNK        -0.4986 
     69 C69        32.0405    0.4078   -5.7342 C.3       12 UNK        -0.0947 
     70 S70        33.0854    0.5066   -4.2422 S.3       12 UNK        -0.2240 
     71 C71        32.5169   -0.9407   -3.2799 C.3       12 UNK         0.0194 
     72 H72        30.2376   -8.7219   -5.5054 H         1 UNK         0.0906 
     73 H73        29.9063   -7.1707   -6.2796 H         1 UNK         0.0906 
     74 H74        31.4023   -7.4012   -5.3730 H         1 UNK         0.0906 
     75 H75        28.3462   -5.9888   -5.1404 H         1 UNK         0.3140 
     76 H76        27.6817   -6.5375   -2.4111 H         1 UNK         0.1085 
     77 H77        28.9819   -3.8435   -3.1264 H         1 UNK         0.0836 
     78 H78        29.5928   -5.0101   -1.9929 H         1 UNK         0.0836 
     79 H79        29.9096   -3.6672    0.0259 H         1 UNK         0.0731 
     80 H80        28.7363   -2.6531    0.8161 H         1 UNK         0.0731 
     81 H81        31.1647   -2.8327   -1.9449 H         1 UNK         0.1312 
     82 H82        31.1835    1.4109   -2.5497 H         1 UNK         0.1406 
     83 H83        28.2455   -0.3743    0.0017 H         1 UNK         0.1631 
     84 H84        29.9015    2.7706   -0.8709 H         1 UNK         0.0717 
     85 H85        28.6510    2.0219    0.0765 H         1 UNK         0.0717 
     86 H86        28.7540    4.3002   -3.5399 H         1 UNK         0.0934 
     87 H87        29.8933    3.0398   -3.2701 H         1 UNK         0.0934 
     88 H88        29.3539    2.7068   -5.5065 H         1 UNK         0.0739 
     89 H89        28.1847    0.7601   -3.7935 H         1 UNK         0.3093 
     90 H90        27.1586   -1.5477   -6.2173 H         1 UNK         0.0818 
     91 H91        28.7699   -3.1571   -5.3641 H         1 UNK         0.0819 
     92 H92        29.6686   -1.9030   -4.5018 H         1 UNK         0.0819 
     93 H93        29.6707   -1.9525   -6.2524 H         1 UNK         0.0819 
     94 H94        27.3928   -2.0755   -3.5211 H         1 UNK         0.3041 
     95 H95        25.9813   -1.0107   -1.7335 H         1 UNK         0.0784 
     96 H96        24.2518    0.7197   -2.0826 H         1 UNK         0.0793 
     97 H97        23.2194   -0.4203   -2.9288 H         1 UNK         0.0793 
     98 H98        23.5670   -0.6458   -1.2148 H         1 UNK         0.0793 
     99 H99        25.4798   -3.1596   -1.8614 H         1 UNK         0.3024 
    100 H100       23.5357   -5.0258   -2.3134 H         1 UNK         0.1171 
    101 H101       23.4831   -6.6360   -4.2394 H         1 UNK         0.0786 
    102 H102       22.4303   -5.2553   -4.4972 H         1 UNK         0.0786 
    103 H103       23.9728   -5.3409   -5.3312 H         1 UNK         0.0786 
    104 H104       25.6101   -5.7445   -2.0073 H         1 UNK         0.2977 
    105 H105       25.9651    1.8228   -5.0123 H         1 UNK         0.3127 
    106 H106       24.8912    4.3341   -6.0133 H         1 UNK         0.0770 
    107 H107       23.5702    1.5764   -5.7989 H         1 UNK         0.0814 
    108 H108       22.7550    3.1116   -6.0491 H         1 UNK         0.0814 
    109 H109       23.5755    2.7973   -4.5272 H         1 UNK         0.0814 
    110 H110       25.9008    1.2313   -7.4094 H         1 UNK         0.2983 
    111 H111       25.1100    1.9325  -10.1527 H         1 UNK         0.0947 
    112 H112       26.3206   -0.1899  -10.7081 H         1 UNK         0.0806 
    113 H113       25.1206   -0.4475   -9.4524 H         1 UNK         0.0806 
    114 H114       26.8281   -0.3497   -9.0318 H         1 UNK         0.0806 
    115 H115       27.9113    2.1335   -8.0751 H         1 UNK         0.3000 
    116 H116       29.7419    3.3209   -8.0218 H         1 UNK         0.0850 
    117 H117       30.2586    5.1604   -9.5871 H         1 UNK         0.0810 
    118 H118       28.5854    5.2492   -9.0599 H         1 UNK         0.0810 
    119 H119       28.9753    4.6538  -10.6727 H         1 UNK         0.0810 
    120 H120       29.2405    2.2093  -11.3751 H         1 UNK         0.3040 
    121 H121       31.9737    1.6073  -11.9515 H         1 UNK         0.0766 
    122 H122       30.9973    0.3883  -13.9118 H         1 UNK         0.0812 
    123 H123       30.2683    1.9736  -13.7186 H         1 UNK         0.0812 
    124 H124       29.3900    0.5306  -13.2119 H         1 UNK         0.0812 
    125 H125       29.5398   -0.2147  -10.2230 H         1 UNK         0.3205 
    126 H126       30.8197   -2.8039  -10.3842 H         1 UNK         0.0754 
    127 H127       28.7133   -1.7043   -8.4484 H         1 UNK         0.0769 
    128 H128       29.1948   -3.3902   -8.5691 H         1 UNK         0.0769 
    129 H129       28.3989   -2.6105   -9.9262 H         1 UNK         0.0769 
    130 H130       31.0212   -0.0333   -8.1343 H         1 UNK         0.2981 
    131 H131       32.8388   -1.4802   -6.3344 H         1 UNK         0.0541 
    132 H132       33.0408    1.2648   -8.7363 H         1 UNK         0.3459 
    133 H133       34.7889    1.1854   -8.8180 H         1 UNK         0.3459 
    134 H134       31.0554    0.0652   -5.4219 H         1 UNK         0.0612 
    135 H135       31.8969    1.4149   -6.1296 H         1 UNK         0.0612 
    136 H136       33.3419   -1.2500   -2.6371 H         1 UNK         0.0624 
    137 H137       32.3368   -1.7713   -3.9638 H         1 UNK         0.0624 
@<TRIPOS>BOND
     1    1    2 1    
     2    1   72 1    
     3    1   73 1    
     4    1   74 1    
     5    2    3 2    
     6    2    4 am   BACKBONE|DICT|INTERRES
     7    4    5 1    
     8    4   75 1    
     9    5    6 1    
    10    5   35 1    
    11    5   76 1    
    12    6    7 1    
    13    6   77 1    
    14    6   78 1    
    15    7    8 1    
    16    8    9 1    
    17    8   79 1    
    18    8   80 1    
    19    9   10 ar   
    20    9   14 ar   
    21   10   11 ar   
    22   10   81 1    
    23   11   12 ar   
    24   11   71 1    
    25   12   13 ar   
    26   12   82 1    
    27   13   14 ar   
    28   13   15 1    
    29   14   83 1    
    30   15   16 1    
    31   15   84 1    
    32   15   85 1    
    33   16   17 1    
    34   17   18 1    
    35   17   86 1    
    36   17   87 1    
    37   18   19 1    
    38   18   37 1    
    39   18   88 1    
    40   19   20 am   BACKBONE|DICT|INTERRES
    41   19   89 1    
    42   20   21 2    
    43   20   22 1    
    44   22   23 1    
    45   22   24 1    
    46   22   90 1    
    47   23   91 1    
    48   23   92 1    
    49   23   93 1    
    50   24   25 am   BACKBONE|DICT|INTERRES
    51   24   94 1    
    52   25   26 2    
    53   25   27 1    
    54   27   28 1    
    55   27   29 1    
    56   27   95 1    
    57   28   96 1    
    58   28   97 1    
    59   28   98 1    
    60   29   30 am   BACKBONE|DICT|INTERRES
    61   29   99 1    
    62   30   31 2    
    63   30   32 1    
    64   32   33 1    
    65   32   34 1    
    66   32  100 1    
    67   33  101 1    
    68   33  102 1    
    69   33  103 1    
    70   34   35 am   BACKBONE|DICT|INTERRES
    71   34  104 1    
    72   35   36 2    
    73   37   38 2    
    74   37   39 am   BACKBONE|DICT|INTERRES
    75   39   40 1    
    76   39  105 1    
    77   40   41 1    
    78   40   42 1    
    79   40  106 1    
    80   41  107 1    
    81   41  108 1    
    82   41  109 1    
    83   42   43 2    
    84   42   44 am   BACKBONE|DICT|INTERRES
    85   44   45 1    
    86   44  110 1    
    87   45   46 1    
    88   45   47 1    
    89   45  111 1    
    90   46  112 1    
    91   46  113 1    
    92   46  114 1    
    93   47   48 2    
    94   47   49 am   BACKBONE|DICT|INTERRES
    95   49   50 1    
    96   49  115 1    
    97   50   51 1    
    98   50   52 1    
    99   50  116 1    
   100   51  117 1    
   101   51  118 1    
   102   51  119 1    
   103   52   53 2    
   104   52   54 am   BACKBONE|DICT|INTERRES
   105   54   55 1    
   106   54  120 1    
   107   55   56 1    
   108   55   57 1    
   109   55  121 1    
   110   56  122 1    
   111   56  123 1    
   112   56  124 1    
   113   57   58 2    
   114   57   59 am   BACKBONE|DICT|INTERRES
   115   59   60 1    
   116   59  125 1    
   117   60   61 1    
   118   60   62 1    
   119   60  126 1    
   120   61  127 1    
   121   61  128 1    
   122   61  129 1    
   123   62   63 2    
   124   62   64 am   BACKBONE|DICT|INTERRES
   125   64   65 1    
   126   64  130 1    
   127   65   66 1    
   128   65   69 1    
   129   65  131 1    
   130   66   67 am   BACKBONE|DICT|INTERRES
   131   66   68 2    
   132   67  132 1    
   133   67  133 1    
   134   69   70 1    
   135   69  134 1    
   136   69  135 1    
   137   70   71 1    
   138   71  136 1    
   139   71  137 1    
@<TRIPOS>SUBSTRUCTURE
     1 UNK         1 GROUP             0       ****    0 ROOT    
