@<TRIPOS>MOLECULE
3R137
137   139    1
SMALL
USER_CHARGES


@<TRIPOS>ATOM
      1 CA         28.7761   -0.5985    3.6195 C.3       0 UNK        -0.2020 
      2 C          28.7285   -0.4828    2.1033 C.2       0 UNK         0.4855 
      3 O          29.1890    0.5169    1.5521 O.2       0 UNK        -0.5197 
      4 N          28.1791   -1.5001    1.4257 N.am      1 UNK        -0.4892 
      5 CA         28.0195   -1.5476   -0.0333 C.3       1 UNK         0.0835 
      6 C6         27.6765   -2.9860   -0.5012 C.3       12 UNK        -0.0855 
      7 S7         27.8454   -3.2168   -2.3021 S.3       12 UNK        -0.2931 
      8 C8         29.4671   -4.0301   -2.4068 C.3       12 UNK         0.0378 
      9 C9         29.9396   -4.1185   -3.8495 C.ar      12 UNK        -0.0802 
     10 C10        31.0267   -3.3565   -4.2850 C.ar      12 UNK        -0.0944 
     11 C11        31.4682   -3.4340   -5.6102 C.ar      12 UNK        -0.0787 
     12 C12        30.8098   -4.2901   -6.5021 C.ar      12 UNK        -0.0862 
     13 C13        29.7288   -5.0699   -6.0737 C.ar      12 UNK        -0.0733 
     14 C14        29.2995   -4.9772   -4.7465 C.ar      12 UNK        -0.0832 
     15 C15        29.0565   -6.0588   -7.0196 C.3       12 UNK         0.0240 
     16 S16        28.0586   -5.2629   -8.3193 S.3       12 UNK        -0.2522 
     17 C17        26.7636   -4.3915   -7.3681 C.3       12 UNK        -0.0967 
     18 CA         26.5198   -2.9572   -7.8993 C.3       5 UNK         0.0660 
     19 N          25.2655   -2.3850   -7.3982 N.am      5 UNK        -0.4015 
     20 C          24.7390   -1.2260   -7.8226 C.2       4 UNK         0.4946 
     21 O          25.2382   -0.5348   -8.7093 O.2       4 UNK        -0.5353 
     22 CA         23.4548   -0.7279   -7.1389 C.3       4 UNK         0.0277 
     23 CB         22.2221   -1.1267   -7.9660 C.3       4 UNK        -0.1981 
     24 N          23.2789   -1.1772   -5.7541 N.am      4 UNK        -0.4209 
     25 C          24.1053   -0.8965   -4.7376 C.2       3 UNK         0.4942 
     26 O          25.1758   -0.2947   -4.8609 O.2       3 UNK        -0.5208 
     27 CA         23.6643   -1.4090   -3.3633 C.3       3 UNK         0.0250 
     28 CB         23.9962   -2.9032   -3.2019 C.3       3 UNK        -0.1990 
     29 N          24.3374   -0.6427   -2.3192 N.am      3 UNK        -0.4232 
     30 C          23.8162   -0.3255   -1.1288 C.2       2 UNK         0.4993 
     31 O          22.6862   -0.6617   -0.7680 O.2       2 UNK        -0.5286 
     32 CA         24.7292    0.4611   -0.1674 C.3       2 UNK         0.0209 
     33 CB         23.9987    0.9217    1.1086 C.3       2 UNK        -0.1931 
     34 N          25.8850   -0.3512    0.2173 N.am      2 UNK        -0.4546 
     35 C          26.9795   -0.5223   -0.5366 C.2       1 UNK         0.5154 
     36 O          27.1714    0.0854   -1.5905 O.2       1 UNK        -0.5181 
     37 C          27.7243   -2.0281   -7.6442 C.2       5 UNK         0.5014 
     38 O          28.5210   -1.8154   -8.5588 O.2       5 UNK        -0.5248 
     39 N          27.8062   -1.4449   -6.4388 N.am      6 UNK        -0.4434 
     40 CA         28.8615   -0.4986   -6.0768 C.3       6 UNK         0.0363 
     41 CB         28.8330   -0.2219   -4.5680 C.3       6 UNK        -0.1936 
     42 C          28.7766    0.8110   -6.8726 C.2       6 UNK         0.5081 
     43 O          29.8102    1.3326   -7.2901 O.2       6 UNK        -0.5248 
     44 N          27.5476    1.2941   -7.1045 N.am      7 UNK        -0.4718 
     45 CA         27.2647    2.4690   -7.9309 C.3       7 UNK         0.0273 
     46 CB         25.7947    2.8837   -7.7584 C.3       7 UNK        -0.1935 
     47 C          27.6048    2.2415   -9.4136 C.2       7 UNK         0.5018 
     48 O          28.1917    3.1262  -10.0367 O.2       7 UNK        -0.5186 
     49 N          27.2557    1.0587   -9.9408 N.am      8 UNK        -0.4240 
     50 CA         27.5677    0.6262  -11.3047 C.3       8 UNK         0.0235 
     51 CB         26.7886   -0.6576  -11.6337 C.3       8 UNK        -0.2000 
     52 C          29.0740    0.4232  -11.5346 C.2       8 UNK         0.4941 
     53 O          29.5889    0.8607  -12.5645 O.2       8 UNK        -0.5273 
     54 N          29.7537   -0.2218  -10.5753 N.am      9 UNK        -0.4262 
     55 CA         31.2028   -0.4363  -10.5914 C.3       9 UNK         0.0264 
     56 CB         31.5749   -1.4828   -9.5283 C.3       9 UNK        -0.1955 
     57 C          32.0112    0.8532  -10.3684 C.2       9 UNK         0.5031 
     58 O          33.1279    0.9514  -10.8790 O.2       9 UNK        -0.5390 
     59 N          31.4474    1.7940   -9.5944 N.am      10 UNK        -0.4204 
     60 CA         32.0534    3.0430   -9.1163 C.3       10 UNK         0.0237 
     61 CB         32.3516    4.0054  -10.2858 C.3       10 UNK        -0.1985 
     62 C          33.2711    2.7923   -8.2033 C.2       10 UNK         0.4970 
     63 O          34.2249    3.5733   -8.2152 O.2       10 UNK        -0.4914 
     64 N          33.2184    1.6932   -7.4417 N.am      11 UNK        -0.4285 
     65 CA         34.2517    1.2622   -6.4945 C.3       11 UNK         0.1007 
     66 C          34.2568    2.0863   -5.1756 C.2       11 UNK         0.5703 
     67 N          35.3337    2.0080   -4.4046 N.am      11 UNK        -0.7361 
     68 O          33.3015    2.7827   -4.8349 O.2       11 UNK        -0.4986 
     69 C69        34.1860   -0.2708   -6.2538 C.3       12 UNK        -0.0947 
     70 S70        32.5647   -0.8648   -5.6656 S.3       12 UNK        -0.2240 
     71 C71        32.6900   -2.6392   -6.0605 C.3       12 UNK         0.0194 
     72 H72        28.2236    0.2226    4.0755 H         1 UNK         0.0906 
     73 H73        28.3441   -1.5348    3.9725 H         1 UNK         0.0906 
     74 H74        29.8076   -0.5494    3.9672 H         1 UNK         0.0906 
     75 H75        27.8297   -2.2996    1.9358 H         1 UNK         0.3140 
     76 H76        28.9798   -1.2678   -0.4733 H         1 UNK         0.1085 
     77 H77        28.3243   -3.7072    0.0001 H         1 UNK         0.0836 
     78 H78        26.6585   -3.2563   -0.2132 H         1 UNK         0.0836 
     79 H79        29.4016   -5.0318   -1.9794 H         1 UNK         0.0731 
     80 H80        30.1871   -3.4776   -1.8008 H         1 UNK         0.0731 
     81 H81        31.5357   -2.7017   -3.5910 H         1 UNK         0.1312 
     82 H82        31.1479   -4.3680   -7.5264 H         1 UNK         0.1406 
     83 H83        28.4673   -5.5771   -4.4032 H         1 UNK         0.1631 
     84 H84        28.4225   -6.7543   -6.4672 H         1 UNK         0.0717 
     85 H85        29.8249   -6.6680   -7.4973 H         1 UNK         0.0717 
     86 H86        25.8504   -4.9821   -7.4577 H         1 UNK         0.0934 
     87 H87        27.0063   -4.3762   -6.3048 H         1 UNK         0.0934 
     88 H88        26.4022   -3.0258   -8.9834 H         1 UNK         0.0739 
     89 H89        24.7871   -2.8917   -6.6688 H         1 UNK         0.3093 
     90 H90        23.5099    0.3625   -7.1183 H         1 UNK         0.0818 
     91 H91        21.3112   -0.6847   -7.5617 H         1 UNK         0.0819 
     92 H92        22.3156   -0.7811   -8.9968 H         1 UNK         0.0819 
     93 H93        22.0874   -2.2087   -7.9966 H         1 UNK         0.0819 
     94 H94        22.4310   -1.6900   -5.5562 H         1 UNK         0.3041 
     95 H95        22.5846   -1.2657   -3.2802 H         1 UNK         0.0784 
     96 H96        23.4657   -3.5086   -3.9376 H         1 UNK         0.0793 
     97 H97        25.0621   -3.0934   -3.3293 H         1 UNK         0.0793 
     98 H98        23.7086   -3.2693   -2.2161 H         1 UNK         0.0793 
     99 H99        25.2705   -0.3169   -2.5560 H         1 UNK         0.3024 
    100 H100       25.0710    1.3540   -0.6967 H         1 UNK         0.1171 
    101 H101       24.6532    1.5160    1.7464 H         1 UNK         0.0786 
    102 H102       23.1372    1.5437    0.8616 H         1 UNK         0.0786 
    103 H103       23.6346    0.0776    1.6958 H         1 UNK         0.0786 
    104 H104       25.7986   -0.8925    1.0651 H         1 UNK         0.2977 
    105 H105       27.0836   -1.6096   -5.7514 H         1 UNK         0.3127 
    106 H106       29.8136   -0.9701   -6.3203 H         1 UNK         0.0770 
    107 H107       27.8775    0.1967   -4.2500 H         1 UNK         0.0814 
    108 H108       29.6128    0.4871   -4.2871 H         1 UNK         0.0814 
    109 H109       29.0089   -1.1320   -3.9973 H         1 UNK         0.0814 
    110 H110       26.7556    0.7910   -6.7277 H         1 UNK         0.2983 
    111 H111       27.8929    3.2870   -7.5710 H         1 UNK         0.0947 
    112 H112       25.5782    3.7894   -8.3265 H         1 UNK         0.0806 
    113 H113       25.5605    3.0925   -6.7144 H         1 UNK         0.0806 
    114 H114       25.1102    2.1106   -8.1078 H         1 UNK         0.0806 
    115 H115       26.7097    0.4141   -9.3723 H         1 UNK         0.3000 
    116 H116       27.2318    1.4108  -11.9861 H         1 UNK         0.0850 
    117 H117       26.9913   -0.9881  -12.6532 H         1 UNK         0.0810 
    118 H118       25.7131   -0.4997  -11.5508 H         1 UNK         0.0810 
    119 H119       27.0572   -1.4756  -10.9643 H         1 UNK         0.0810 
    120 H120       29.2421   -0.6244   -9.7908 H         1 UNK         0.3040 
    121 H121       31.4763   -0.8329  -11.5714 H         1 UNK         0.0766 
    122 H122       31.2877   -1.1573   -8.5277 H         1 UNK         0.0812 
    123 H123       32.6499   -1.6677   -9.5176 H         1 UNK         0.0812 
    124 H124       31.0821   -2.4362   -9.7202 H         1 UNK         0.0812 
    125 H125       30.5589    1.5688   -9.1570 H         1 UNK         0.3205 
    126 H126       31.2994    3.5172   -8.4861 H         1 UNK         0.0754 
    127 H127       32.6618    4.9838   -9.9170 H         1 UNK         0.0769 
    128 H128       31.4676    4.1585  -10.9051 H         1 UNK         0.0769 
    129 H129       33.1506    3.6318  -10.9266 H         1 UNK         0.0769 
    130 H130       32.3656    1.1513   -7.4345 H         1 UNK         0.2981 
    131 H131       35.2136    1.4621   -6.9710 H         1 UNK         0.0541 
    132 H132       36.1243    1.4402   -4.6669 H         1 UNK         0.3459 
    133 H133       35.3561    2.5296   -3.5424 H         1 UNK         0.3459 
    134 H134       34.9527   -0.5893   -5.5457 H         1 UNK         0.0612 
    135 H135       34.4162   -0.7842   -7.1888 H         1 UNK         0.0612 
    136 H136       32.8467   -2.7512   -7.1340 H         1 UNK         0.0624 
    137 H137       33.5741   -3.0501   -5.5715 H         1 UNK         0.0624 
@<TRIPOS>BOND
     1    1    2 1    
     2    1   72 1    
     3    1   73 1    
     4    1   74 1    
     5    2    3 2    
     6    2    4 am   BACKBONE|DICT|INTERRES
     7    4    5 1    
     8    4   75 1    
     9    5    6 1    
    10    5   35 1    
    11    5   76 1    
    12    6    7 1    
    13    6   77 1    
    14    6   78 1    
    15    7    8 1    
    16    8    9 1    
    17    8   79 1    
    18    8   80 1    
    19    9   10 ar   
    20    9   14 ar   
    21   10   11 ar   
    22   10   81 1    
    23   11   12 ar   
    24   11   71 1    
    25   12   13 ar   
    26   12   82 1    
    27   13   14 ar   
    28   13   15 1    
    29   14   83 1    
    30   15   16 1    
    31   15   84 1    
    32   15   85 1    
    33   16   17 1    
    34   17   18 1    
    35   17   86 1    
    36   17   87 1    
    37   18   19 1    
    38   18   37 1    
    39   18   88 1    
    40   19   20 am   BACKBONE|DICT|INTERRES
    41   19   89 1    
    42   20   21 2    
    43   20   22 1    
    44   22   23 1    
    45   22   24 1    
    46   22   90 1    
    47   23   91 1    
    48   23   92 1    
    49   23   93 1    
    50   24   25 am   BACKBONE|DICT|INTERRES
    51   24   94 1    
    52   25   26 2    
    53   25   27 1    
    54   27   28 1    
    55   27   29 1    
    56   27   95 1    
    57   28   96 1    
    58   28   97 1    
    59   28   98 1    
    60   29   30 am   BACKBONE|DICT|INTERRES
    61   29   99 1    
    62   30   31 2    
    63   30   32 1    
    64   32   33 1    
    65   32   34 1    
    66   32  100 1    
    67   33  101 1    
    68   33  102 1    
    69   33  103 1    
    70   34   35 am   BACKBONE|DICT|INTERRES
    71   34  104 1    
    72   35   36 2    
    73   37   38 2    
    74   37   39 am   BACKBONE|DICT|INTERRES
    75   39   40 1    
    76   39  105 1    
    77   40   41 1    
    78   40   42 1    
    79   40  106 1    
    80   41  107 1    
    81   41  108 1    
    82   41  109 1    
    83   42   43 2    
    84   42   44 am   BACKBONE|DICT|INTERRES
    85   44   45 1    
    86   44  110 1    
    87   45   46 1    
    88   45   47 1    
    89   45  111 1    
    90   46  112 1    
    91   46  113 1    
    92   46  114 1    
    93   47   48 2    
    94   47   49 am   BACKBONE|DICT|INTERRES
    95   49   50 1    
    96   49  115 1    
    97   50   51 1    
    98   50   52 1    
    99   50  116 1    
   100   51  117 1    
   101   51  118 1    
   102   51  119 1    
   103   52   53 2    
   104   52   54 am   BACKBONE|DICT|INTERRES
   105   54   55 1    
   106   54  120 1    
   107   55   56 1    
   108   55   57 1    
   109   55  121 1    
   110   56  122 1    
   111   56  123 1    
   112   56  124 1    
   113   57   58 2    
   114   57   59 am   BACKBONE|DICT|INTERRES
   115   59   60 1    
   116   59  125 1    
   117   60   61 1    
   118   60   62 1    
   119   60  126 1    
   120   61  127 1    
   121   61  128 1    
   122   61  129 1    
   123   62   63 2    
   124   62   64 am   BACKBONE|DICT|INTERRES
   125   64   65 1    
   126   64  130 1    
   127   65   66 1    
   128   65   69 1    
   129   65  131 1    
   130   66   67 am   BACKBONE|DICT|INTERRES
   131   66   68 2    
   132   67  132 1    
   133   67  133 1    
   134   69   70 1    
   135   69  134 1    
   136   69  135 1    
   137   70   71 1    
   138   71  136 1    
   139   71  137 1    
@<TRIPOS>SUBSTRUCTURE
     1 UNK         1 GROUP             0       ****    0 ROOT    
