@<TRIPOS>MOLECULE
3R137
137   139    1
SMALL
USER_CHARGES


@<TRIPOS>ATOM
      1 CA         25.0187   -2.2620   -7.9475 C.3       0 UNK        -0.2020 
      2 C          25.0152   -3.4573   -7.0052 C.2       0 UNK         0.4855 
      3 O          24.6047   -4.5492   -7.4004 O.2       0 UNK        -0.5197 
      4 N          25.4732   -3.2519   -5.7682 N.am      1 UNK        -0.4892 
      5 CA         25.5139   -4.2470   -4.6926 C.3       1 UNK         0.0835 
      6 C6         26.8791   -4.1995   -3.9582 C.3       12 UNK        -0.0855 
      7 S7         28.2370   -4.7649   -5.0342 S.3       12 UNK        -0.2931 
      8 C8         29.6248   -4.8135   -3.8590 C.3       12 UNK         0.0378 
      9 C9         30.0176   -3.4201   -3.3920 C.ar      12 UNK        -0.0802 
     10 C10        30.7314   -2.5734   -4.2443 C.ar      12 UNK        -0.0944 
     11 C11        31.1050   -1.2938   -3.8256 C.ar      12 UNK        -0.0787 
     12 C12        30.7783   -0.8712   -2.5344 C.ar      12 UNK        -0.0862 
     13 C13        30.0384   -1.6985   -1.6818 C.ar      12 UNK        -0.0733 
     14 C14        29.6674   -2.9753   -2.1135 C.ar      12 UNK        -0.0832 
     15 C15        29.6114   -1.2036   -0.3062 C.3       12 UNK         0.0240 
     16 S16        27.9209   -0.5152   -0.3319 S.3       12 UNK        -0.2522 
     17 C17        28.1441    0.9279   -1.4241 C.3       12 UNK        -0.0967 
     18 CA         27.6826    0.6180   -2.8741 C.3       5 UNK         0.0660 
     19 N          26.2199    0.6365   -2.9815 N.am      5 UNK        -0.4015 
     20 C          25.4951    0.0726   -3.9539 C.2       4 UNK         0.4946 
     21 O          25.9820   -0.6062   -4.8632 O.2       4 UNK        -0.5353 
     22 CA         23.9820    0.3237   -3.8959 C.3       4 UNK         0.0277 
     23 CB         23.2771   -0.0032   -5.2262 C.3       4 UNK        -0.1981 
     24 N          23.3811   -0.4553   -2.8134 N.am      4 UNK        -0.4209 
     25 C          23.3097   -0.0526   -1.5357 C.2       3 UNK         0.4942 
     26 O          23.7653    1.0241   -1.1457 O.2       3 UNK        -0.5208 
     27 CA         22.6102   -0.9751   -0.5183 C.3       3 UNK         0.0250 
     28 CB         21.1854   -0.4711   -0.2345 C.3       3 UNK        -0.1990 
     29 N          22.5431   -2.3728   -0.9498 N.am      3 UNK        -0.4232 
     30 C          23.5585   -3.2413   -0.8613 C.2       2 UNK         0.4993 
     31 O          24.6405   -2.9775   -0.3353 O.2       2 UNK        -0.5286 
     32 CA         23.3645   -4.6325   -1.4990 C.3       2 UNK         0.0209 
     33 CB         21.9051   -4.9623   -1.8928 C.3       2 UNK        -0.1931 
     34 N          24.2693   -4.8015   -2.6446 N.am      2 UNK        -0.4546 
     35 C          24.3387   -4.0036   -3.7222 C.2       1 UNK         0.5154 
     36 O          23.5260   -3.1006   -3.9403 O.2       1 UNK        -0.5181 
     37 C          28.3382    1.5444   -3.9254 C.2       5 UNK         0.5014 
     38 O          29.0343    2.4975   -3.5709 O.2       5 UNK        -0.5248 
     39 N          28.0913    1.2501   -5.2055 N.am      6 UNK        -0.4434 
     40 CA         28.5781    1.9813   -6.3715 C.3       6 UNK         0.0363 
     41 CB         27.7769    3.2868   -6.5603 C.3       6 UNK        -0.1936 
     42 C          28.5244    1.0629   -7.6006 C.2       6 UNK         0.5081 
     43 O          28.0112    1.4635   -8.6470 O.2       6 UNK        -0.5248 
     44 N          29.0352   -0.1683   -7.4479 N.am      7 UNK        -0.4718 
     45 CA         29.1150   -1.1982   -8.4897 C.3       7 UNK         0.0273 
     46 CB         29.7720   -2.4581   -7.9057 C.3       7 UNK        -0.1935 
     47 C          29.8813   -0.7002   -9.7272 C.2       7 UNK         0.5018 
     48 O          31.0934   -0.4873   -9.6463 O.2       7 UNK        -0.5186 
     49 N          29.1381   -0.4512  -10.8167 N.am      8 UNK        -0.4240 
     50 CA         29.5863    0.1795  -12.0671 C.3       8 UNK         0.0235 
     51 CB         30.5223   -0.7710  -12.8444 C.3       8 UNK        -0.2000 
     52 C          30.2089    1.5778  -11.8585 C.2       8 UNK         0.4941 
     53 O          31.0895    1.9718  -12.6257 O.2       8 UNK        -0.5273 
     54 N          29.7854    2.2809  -10.7947 N.am      9 UNK        -0.4262 
     55 CA         30.2996    3.5453  -10.2479 C.3       9 UNK         0.0264 
     56 CB         30.1369    4.7050  -11.2492 C.3       9 UNK        -0.1955 
     57 C          31.7432    3.4713   -9.7112 C.2       9 UNK         0.5031 
     58 O          32.0107    3.9966   -8.6303 O.2       9 UNK        -0.5390 
     59 N          32.6432    2.8381  -10.4707 N.am      10 UNK        -0.4204 
     60 CA         34.0761    2.7300  -10.2008 C.3       10 UNK         0.0237 
     61 CB         34.7898    2.3065  -11.4955 C.3       10 UNK        -0.1985 
     62 C          34.4490    1.7760   -9.0526 C.2       10 UNK         0.4970 
     63 O          35.5440    1.9253   -8.5085 O.2       10 UNK        -0.4914 
     64 N          33.5774    0.8118   -8.7176 N.am      11 UNK        -0.4285 
     65 CA         33.8383   -0.2554   -7.7343 C.3       11 UNK         0.1007 
     66 C          34.8977   -1.3010   -8.2089 C.2       11 UNK         0.5703 
     67 N          35.1106   -1.4667   -9.5098 N.am      11 UNK        -0.7361 
     68 O          35.5257   -1.9853   -7.4048 O.2       11 UNK        -0.4986 
     69 C69        34.0834    0.3056   -6.2999 C.3       12 UNK        -0.0947 
     70 S70        33.5711   -0.8429   -4.9795 S.3       12 UNK        -0.2240 
     71 C71        31.8332   -0.3616   -4.7805 C.3       12 UNK         0.0194 
     72 H72        25.5462   -2.5102   -8.8679 H         1 UNK         0.0906 
     73 H73        23.9968   -1.9832   -8.2028 H         1 UNK         0.0906 
     74 H74        25.5062   -1.3945   -7.5019 H         1 UNK         0.0906 
     75 H75        25.7207   -2.3055   -5.4805 H         1 UNK         0.3140 
     76 H76        25.3748   -5.2493   -5.1036 H         1 UNK         0.1085 
     77 H77        27.0933   -3.1857   -3.6122 H         1 UNK         0.0836 
     78 H78        26.8840   -4.8355   -3.0717 H         1 UNK         0.0836 
     79 H79        30.4806   -5.2854   -4.3441 H         1 UNK         0.0731 
     80 H80        29.3653   -5.4513   -3.0125 H         1 UNK         0.0731 
     81 H81        30.9944   -2.9124   -5.2363 H         1 UNK         0.1312 
     82 H82        31.0719    0.1164   -2.2066 H         1 UNK         0.1406 
     83 H83        29.0953   -3.6166   -1.4565 H         1 UNK         0.1631 
     84 H84        30.3083   -0.4508    0.0654 H         1 UNK         0.0717 
     85 H85        29.6457   -2.0272    0.4085 H         1 UNK         0.0717 
     86 H86        29.1924    1.2254   -1.3806 H         1 UNK         0.0934 
     87 H87        27.5899    1.7741   -1.0142 H         1 UNK         0.0934 
     88 H88        28.0147   -0.3906   -3.1290 H         1 UNK         0.0739 
     89 H89        25.7225    1.1374   -2.2556 H         1 UNK         0.3093 
     90 H90        23.8300    1.3887   -3.7061 H         1 UNK         0.0818 
     91 H91        23.3780   -1.0529   -5.4997 H         1 UNK         0.0819 
     92 H92        22.2129    0.2268   -5.1766 H         1 UNK         0.0819 
     93 H93        23.6982    0.5842   -6.0430 H         1 UNK         0.0819 
     94 H94        23.1011   -1.4015   -3.0570 H         1 UNK         0.3041 
     95 H95        23.1790   -0.9223    0.4128 H         1 UNK         0.0784 
     96 H96        21.1999    0.5604    0.1207 H         1 UNK         0.0793 
     97 H97        20.5606   -0.4989   -1.1282 H         1 UNK         0.0793 
     98 H98        20.6986   -1.0697    0.5357 H         1 UNK         0.0793 
     99 H99        21.6979   -2.6682   -1.4172 H         1 UNK         0.3024 
    100 H100       23.6725   -5.3555   -0.7415 H         1 UNK         0.1171 
    101 H101       21.8260   -5.9853   -2.2607 H         1 UNK         0.0786 
    102 H102       21.2380   -4.8833   -1.0332 H         1 UNK         0.0786 
    103 H103       21.5208   -4.3064   -2.6745 H         1 UNK         0.0786 
    104 H104       24.9724   -5.5188   -2.5343 H         1 UNK         0.2977 
    105 H105       27.4662    0.4671   -5.3929 H         1 UNK         0.3127 
    106 H106       29.6283    2.2376   -6.2153 H         1 UNK         0.0770 
    107 H107       26.7168    3.0857   -6.7186 H         1 UNK         0.0814 
    108 H108       28.1367    3.8478   -7.4232 H         1 UNK         0.0814 
    109 H109       27.8679    3.9419   -5.6941 H         1 UNK         0.0814 
    110 H110       29.4270   -0.4119   -6.5510 H         1 UNK         0.2983 
    111 H111       28.0942   -1.4540   -8.7811 H         1 UNK         0.0947 
    112 H112       29.8158   -3.2552   -8.6489 H         1 UNK         0.0806 
    113 H113       30.7931   -2.2671   -7.5741 H         1 UNK         0.0806 
    114 H114       29.2055   -2.8396   -7.0571 H         1 UNK         0.0806 
    115 H115       28.1430   -0.6183  -10.7545 H         1 UNK         0.3000 
    116 H116       28.6925    0.3360  -12.6728 H         1 UNK         0.0850 
    117 H117       30.7542   -0.3726  -13.8329 H         1 UNK         0.0810 
    118 H118       30.0627   -1.7483  -12.9914 H         1 UNK         0.0810 
    119 H119       31.4691   -0.9205  -12.3242 H         1 UNK         0.0810 
    120 H120       29.0749    1.8464  -10.2092 H         1 UNK         0.3040 
    121 H121       29.6636    3.7670   -9.3899 H         1 UNK         0.0766 
    122 H122       30.7527    4.5698  -12.1388 H         1 UNK         0.0812 
    123 H123       30.4299    5.6527  -10.7955 H         1 UNK         0.0812 
    124 H124       29.1007    4.8069  -11.5713 H         1 UNK         0.0812 
    125 H125       32.3024    2.4502  -11.3494 H         1 UNK         0.3205 
    126 H126       34.4375    3.7223   -9.9228 H         1 UNK         0.0754 
    127 H127       35.8681    2.2349  -11.3452 H         1 UNK         0.0769 
    128 H128       34.6237    3.0300  -12.2942 H         1 UNK         0.0769 
    129 H129       34.4429    1.3341  -11.8476 H         1 UNK         0.0769 
    130 H130       32.7060    0.7166   -9.2287 H         1 UNK         0.2981 
    131 H131       32.9055   -0.8177   -7.7024 H         1 UNK         0.0541 
    132 H132       35.7903   -2.1449   -9.8155 H         1 UNK         0.3459 
    133 H133       34.5883   -0.9329  -10.1852 H         1 UNK         0.3459 
    134 H134       35.1356    0.5565   -6.1558 H         1 UNK         0.0612 
    135 H135       33.5369    1.2396   -6.1589 H         1 UNK         0.0612 
    136 H136       31.3426   -0.3827   -5.7536 H         1 UNK         0.0624 
    137 H137       31.7810    0.6704   -4.4292 H         1 UNK         0.0624 
@<TRIPOS>BOND
     1    1    2 1    
     2    1   72 1    
     3    1   73 1    
     4    1   74 1    
     5    2    3 2    
     6    2    4 am   BACKBONE|DICT|INTERRES
     7    4    5 1    
     8    4   75 1    
     9    5    6 1    
    10    5   35 1    
    11    5   76 1    
    12    6    7 1    
    13    6   77 1    
    14    6   78 1    
    15    7    8 1    
    16    8    9 1    
    17    8   79 1    
    18    8   80 1    
    19    9   10 ar   
    20    9   14 ar   
    21   10   11 ar   
    22   10   81 1    
    23   11   12 ar   
    24   11   71 1    
    25   12   13 ar   
    26   12   82 1    
    27   13   14 ar   
    28   13   15 1    
    29   14   83 1    
    30   15   16 1    
    31   15   84 1    
    32   15   85 1    
    33   16   17 1    
    34   17   18 1    
    35   17   86 1    
    36   17   87 1    
    37   18   19 1    
    38   18   37 1    
    39   18   88 1    
    40   19   20 am   BACKBONE|DICT|INTERRES
    41   19   89 1    
    42   20   21 2    
    43   20   22 1    
    44   22   23 1    
    45   22   24 1    
    46   22   90 1    
    47   23   91 1    
    48   23   92 1    
    49   23   93 1    
    50   24   25 am   BACKBONE|DICT|INTERRES
    51   24   94 1    
    52   25   26 2    
    53   25   27 1    
    54   27   28 1    
    55   27   29 1    
    56   27   95 1    
    57   28   96 1    
    58   28   97 1    
    59   28   98 1    
    60   29   30 am   BACKBONE|DICT|INTERRES
    61   29   99 1    
    62   30   31 2    
    63   30   32 1    
    64   32   33 1    
    65   32   34 1    
    66   32  100 1    
    67   33  101 1    
    68   33  102 1    
    69   33  103 1    
    70   34   35 am   BACKBONE|DICT|INTERRES
    71   34  104 1    
    72   35   36 2    
    73   37   38 2    
    74   37   39 am   BACKBONE|DICT|INTERRES
    75   39   40 1    
    76   39  105 1    
    77   40   41 1    
    78   40   42 1    
    79   40  106 1    
    80   41  107 1    
    81   41  108 1    
    82   41  109 1    
    83   42   43 2    
    84   42   44 am   BACKBONE|DICT|INTERRES
    85   44   45 1    
    86   44  110 1    
    87   45   46 1    
    88   45   47 1    
    89   45  111 1    
    90   46  112 1    
    91   46  113 1    
    92   46  114 1    
    93   47   48 2    
    94   47   49 am   BACKBONE|DICT|INTERRES
    95   49   50 1    
    96   49  115 1    
    97   50   51 1    
    98   50   52 1    
    99   50  116 1    
   100   51  117 1    
   101   51  118 1    
   102   51  119 1    
   103   52   53 2    
   104   52   54 am   BACKBONE|DICT|INTERRES
   105   54   55 1    
   106   54  120 1    
   107   55   56 1    
   108   55   57 1    
   109   55  121 1    
   110   56  122 1    
   111   56  123 1    
   112   56  124 1    
   113   57   58 2    
   114   57   59 am   BACKBONE|DICT|INTERRES
   115   59   60 1    
   116   59  125 1    
   117   60   61 1    
   118   60   62 1    
   119   60  126 1    
   120   61  127 1    
   121   61  128 1    
   122   61  129 1    
   123   62   63 2    
   124   62   64 am   BACKBONE|DICT|INTERRES
   125   64   65 1    
   126   64  130 1    
   127   65   66 1    
   128   65   69 1    
   129   65  131 1    
   130   66   67 am   BACKBONE|DICT|INTERRES
   131   66   68 2    
   132   67  132 1    
   133   67  133 1    
   134   69   70 1    
   135   69  134 1    
   136   69  135 1    
   137   70   71 1    
   138   71  136 1    
   139   71  137 1    
@<TRIPOS>SUBSTRUCTURE
     1 UNK         1 GROUP             0       ****    0 ROOT    
