@<TRIPOS>MOLECULE
3R137
137   139    1
SMALL
USER_CHARGES


@<TRIPOS>ATOM
      1 CA         24.5116   -6.3485   -3.8922 C.3       0 UNK        -0.2020 
      2 C          24.7787   -5.4222   -2.7156 C.2       0 UNK         0.4855 
      3 O          23.8861   -4.6811   -2.3014 O.2       0 UNK        -0.5197 
      4 N          26.0005   -5.4565   -2.1700 N.am      1 UNK        -0.4892 
      5 CA         26.4609   -4.5871   -1.0841 C.3       1 UNK         0.0835 
      6 C6         27.8056   -5.0621   -0.4691 C.3       12 UNK        -0.0855 
      7 S7         29.0806   -5.5872   -1.6766 S.3       12 UNK        -0.2931 
      8 C8         30.5720   -4.7237   -1.0849 C.3       12 UNK         0.0378 
      9 C9         30.8439   -3.4569   -1.8824 C.ar      12 UNK        -0.0802 
     10 C10        31.8435   -3.4422   -2.8587 C.ar      12 UNK        -0.0944 
     11 C11        32.1101   -2.2781   -3.5838 C.ar      12 UNK        -0.0787 
     12 C12        31.3503   -1.1289   -3.3464 C.ar      12 UNK        -0.0862 
     13 C13        30.3460   -1.1251   -2.3662 C.ar      12 UNK        -0.0733 
     14 C14        30.1106   -2.2942   -1.6358 C.ar      12 UNK        -0.0832 
     15 C15        29.4615    0.0887   -2.0777 C.3       12 UNK         0.0240 
     16 S16        30.0397    1.6698   -2.7845 S.3       12 UNK        -0.2522 
     17 C17        28.4728    2.4394   -3.3110 C.3       12 UNK        -0.0967 
     18 CA         28.1278    2.0666   -4.7734 C.3       5 UNK         0.0660 
     19 N          27.7534    0.6593   -4.9211 N.am      5 UNK        -0.4015 
     20 C          27.8468   -0.0327   -6.0626 C.2       4 UNK         0.4946 
     21 O          28.2908    0.4378   -7.1088 O.2       4 UNK        -0.5353 
     22 CA         27.3228   -1.4790   -6.0463 C.3       4 UNK         0.0277 
     23 CB         28.4306   -2.4497   -5.6056 C.3       4 UNK        -0.1981 
     24 N          26.1480   -1.6462   -5.1846 N.am      4 UNK        -0.4209 
     25 C          24.9537   -1.0823   -5.4305 C.2       3 UNK         0.4942 
     26 O          24.7147   -0.4130   -6.4332 O.2       3 UNK        -0.5208 
     27 CA         23.8500   -1.2293   -4.3674 C.3       3 UNK         0.0250 
     28 CB         22.9567   -2.4362   -4.6892 C.3       3 UNK        -0.1990 
     29 N          24.3573   -1.3363   -2.9983 N.am      3 UNK        -0.4232 
     30 C          25.1373   -0.4267   -2.3934 C.2       2 UNK         0.4993 
     31 O          25.4698    0.6405   -2.9135 O.2       2 UNK        -0.5286 
     32 CA         25.7011   -0.7919   -1.0068 C.3       2 UNK         0.0209 
     33 CB         24.8353   -0.1661    0.0975 C.3       2 UNK        -0.1931 
     34 N          25.8425   -2.2338   -0.7543 N.am      2 UNK        -0.4546 
     35 C          26.4927   -3.1123   -1.5340 C.2       1 UNK         0.5154 
     36 O          27.0567   -2.8022   -2.5854 O.2       1 UNK        -0.5181 
     37 C          27.0306    2.9780   -5.3491 C.2       5 UNK         0.5014 
     38 O          27.3624    3.9661   -6.0043 O.2       5 UNK        -0.5248 
     39 N          25.7539    2.6190   -5.1392 N.am      6 UNK        -0.4434 
     40 CA         24.5956    3.3189   -5.7057 C.3       6 UNK         0.0363 
     41 CB         23.2998    2.7537   -5.1044 C.3       6 UNK        -0.1936 
     42 C          24.5522    3.2601   -7.2444 C.2       6 UNK         0.5081 
     43 O          24.2683    4.2747   -7.8812 O.2       6 UNK        -0.5248 
     44 N          24.8593    2.0861   -7.8138 N.am      7 UNK        -0.4718 
     45 CA         24.9628    1.8598   -9.2590 C.3       7 UNK         0.0273 
     46 CB         24.8472    0.3518   -9.5374 C.3       7 UNK        -0.1935 
     47 C          26.2601    2.4095   -9.8806 C.2       7 UNK         0.5018 
     48 O          26.3252    2.5192  -11.1057 O.2       7 UNK        -0.5186 
     49 N          27.2595    2.7206   -9.0404 N.am      8 UNK        -0.4240 
     50 CA         28.6217    3.1450   -9.3824 C.3       8 UNK         0.0235 
     51 CB         28.6184    4.5297  -10.0649 C.3       8 UNK        -0.2000 
     52 C          29.3680    2.0652  -10.1892 C.2       8 UNK         0.4941 
     53 O          29.8292    2.3238  -11.3037 O.2       8 UNK        -0.5273 
     54 N          29.4394    0.8594   -9.6099 N.am      9 UNK        -0.4262 
     55 CA         30.1155   -0.3161  -10.1596 C.3       9 UNK         0.0264 
     56 CB         29.8023   -1.5282   -9.2658 C.3       9 UNK        -0.1955 
     57 C          31.6377   -0.1293  -10.2819 C.2       9 UNK         0.5031 
     58 O          32.2280    0.6953   -9.5775 O.2       9 UNK        -0.5390 
     59 N          32.2499   -0.9507  -11.1459 N.am      10 UNK        -0.4204 
     60 CA         33.6784   -0.9399  -11.4844 C.3       10 UNK         0.0237 
     61 CB         33.9423   -1.9912  -12.5755 C.3       10 UNK        -0.1985 
     62 C          34.6437   -1.1436  -10.3008 C.2       10 UNK         0.4970 
     63 O          35.8068   -0.7537  -10.4153 O.2       10 UNK        -0.4914 
     64 N          34.1628   -1.7304   -9.1957 N.am      11 UNK        -0.4285 
     65 CA         34.9085   -1.8399   -7.9348 C.3       11 UNK         0.1007 
     66 C          35.0920   -0.4966   -7.1652 C.2       11 UNK         0.5703 
     67 N          34.3761    0.5718   -7.5009 N.am      11 UNK        -0.7361 
     68 O          35.9123   -0.4230   -6.2534 O.2       11 UNK        -0.4986 
     69 C69        34.3669   -2.9858   -7.0385 C.3       12 UNK        -0.0947 
     70 S70        32.7322   -2.6860   -6.2707 S.3       12 UNK        -0.2240 
     71 C71        33.2576   -2.2520   -4.5814 C.3       12 UNK         0.0194 
     72 H72        25.3653   -6.9916   -4.1058 H         1 UNK         0.0906 
     73 H73        23.6529   -6.9851   -3.6807 H         1 UNK         0.0906 
     74 H74        24.2929   -5.7671   -4.7872 H         1 UNK         0.0906 
     75 H75        26.7179   -6.0469   -2.5686 H         1 UNK         0.3140 
     76 H76        25.7112   -4.6644   -0.2929 H         1 UNK         0.1085 
     77 H77        27.6101   -5.9265    0.1674 H         1 UNK         0.0836 
     78 H78        28.2064   -4.3028    0.2046 H         1 UNK         0.0836 
     79 H79        31.4179   -5.4074   -1.1720 H         1 UNK         0.0731 
     80 H80        30.4909   -4.4904   -0.0225 H         1 UNK         0.0731 
     81 H81        32.4260   -4.3341   -3.0461 H         1 UNK         0.1312 
     82 H82        31.5567   -0.2433   -3.9298 H         1 UNK         0.1406 
     83 H83        29.3354   -2.3067   -0.8829 H         1 UNK         0.1631 
     84 H84        29.3593    0.2197   -0.9994 H         1 UNK         0.0717 
     85 H85        28.4669   -0.1416   -2.4551 H         1 UNK         0.0717 
     86 H86        27.6677    2.1724   -2.6241 H         1 UNK         0.0934 
     87 H87        28.6031    3.5194   -3.2145 H         1 UNK         0.0934 
     88 H88        29.0216    2.2422   -5.3773 H         1 UNK         0.0739 
     89 H89        27.3037    0.2265   -4.1267 H         1 UNK         0.3093 
     90 H90        27.0302   -1.7343   -7.0670 H         1 UNK         0.0818 
     91 H91        29.3076   -2.3667   -6.2479 H         1 UNK         0.0819 
     92 H92        28.0931   -3.4852   -5.6492 H         1 UNK         0.0819 
     93 H93        28.7612   -2.2520   -4.5856 H         1 UNK         0.0819 
     94 H94        26.2909   -2.1550   -4.3159 H         1 UNK         0.3041 
     95 H95        23.2306   -0.3327   -4.4071 H         1 UNK         0.0784 
     96 H96        22.4970   -2.3277   -5.6727 H         1 UNK         0.0793 
     97 H97        23.5250   -3.3660   -4.6983 H         1 UNK         0.0793 
     98 H98        22.1497   -2.5419   -3.9640 H         1 UNK         0.0793 
     99 H99        24.1579   -2.1989   -2.5084 H         1 UNK         0.3024 
    100 H100       26.6969   -0.3524   -0.9412 H         1 UNK         0.1171 
    101 H101       25.2787   -0.3127    1.0826 H         1 UNK         0.0786 
    102 H102       24.7312    0.9101   -0.0502 H         1 UNK         0.0786 
    103 H103       23.8308   -0.5912    0.1131 H         1 UNK         0.0786 
    104 H104       25.3879   -2.5792    0.0793 H         1 UNK         0.2977 
    105 H105       25.5645    1.8233   -4.5369 H         1 UNK         0.3127 
    106 H106       24.6740    4.3687   -5.4149 H         1 UNK         0.0770 
    107 H107       23.1190    1.7299   -5.4300 H         1 UNK         0.0814 
    108 H108       22.4390    3.3468   -5.4157 H         1 UNK         0.0814 
    109 H109       23.3250    2.7635   -4.0144 H         1 UNK         0.0814 
    110 H110       24.9979    1.2707   -7.2197 H         1 UNK         0.2983 
    111 H111       24.1273    2.3642   -9.7494 H         1 UNK         0.0947 
    112 H112       24.8748    0.1463  -10.6084 H         1 UNK         0.0806 
    113 H113       23.9100   -0.0521   -9.1542 H         1 UNK         0.0806 
    114 H114       25.6649   -0.2045   -9.0766 H         1 UNK         0.0806 
    115 H115       27.0891    2.5740   -8.0547 H         1 UNK         0.3000 
    116 H116       29.1560    3.2471   -8.4363 H         1 UNK         0.0850 
    117 H117       29.6370    4.8838  -10.2278 H         1 UNK         0.0810 
    118 H118       28.1109    5.2721   -9.4488 H         1 UNK         0.0810 
    119 H119       28.1250    4.5058  -11.0369 H         1 UNK         0.0810 
    120 H120       29.0294    0.7446   -8.6820 H         1 UNK         0.3040 
    121 H121       29.7065   -0.4945  -11.1562 H         1 UNK         0.0766 
    122 H122       28.7275   -1.6822   -9.1669 H         1 UNK         0.0812 
    123 H123       30.2150   -1.3988   -8.2643 H         1 UNK         0.0812 
    124 H124       30.2231   -2.4469   -9.6758 H         1 UNK         0.0812 
    125 H125       31.6813   -1.6106  -11.6576 H         1 UNK         0.3205 
    126 H126       33.8986    0.0451  -11.9013 H         1 UNK         0.0754 
    127 H127       34.9910   -1.9888  -12.8770 H         1 UNK         0.0769 
    128 H128       33.3522   -1.7934  -13.4707 H         1 UNK         0.0769 
    129 H129       33.7053   -2.9987  -12.2307 H         1 UNK         0.0769 
    130 H130       33.1933   -2.0063   -9.1673 H         1 UNK         0.2981 
    131 H131       35.9218   -2.1397   -8.2099 H         1 UNK         0.0541 
    132 H132       34.5139    1.4325   -6.9969 H         1 UNK         0.3459 
    133 H133       33.6838    0.5284   -8.2427 H         1 UNK         0.3459 
    134 H134       35.0974   -3.2163   -6.2616 H         1 UNK         0.0612 
    135 H135       34.2889   -3.9003   -7.6284 H         1 UNK         0.0612 
    136 H136       34.0331   -2.9441   -4.2500 H         1 UNK         0.0624 
    137 H137       33.7173   -1.2629   -4.5912 H         1 UNK         0.0624 
@<TRIPOS>BOND
     1    1    2 1    
     2    1   72 1    
     3    1   73 1    
     4    1   74 1    
     5    2    3 2    
     6    2    4 am   BACKBONE|DICT|INTERRES
     7    4    5 1    
     8    4   75 1    
     9    5    6 1    
    10    5   35 1    
    11    5   76 1    
    12    6    7 1    
    13    6   77 1    
    14    6   78 1    
    15    7    8 1    
    16    8    9 1    
    17    8   79 1    
    18    8   80 1    
    19    9   10 ar   
    20    9   14 ar   
    21   10   11 ar   
    22   10   81 1    
    23   11   12 ar   
    24   11   71 1    
    25   12   13 ar   
    26   12   82 1    
    27   13   14 ar   
    28   13   15 1    
    29   14   83 1    
    30   15   16 1    
    31   15   84 1    
    32   15   85 1    
    33   16   17 1    
    34   17   18 1    
    35   17   86 1    
    36   17   87 1    
    37   18   19 1    
    38   18   37 1    
    39   18   88 1    
    40   19   20 am   BACKBONE|DICT|INTERRES
    41   19   89 1    
    42   20   21 2    
    43   20   22 1    
    44   22   23 1    
    45   22   24 1    
    46   22   90 1    
    47   23   91 1    
    48   23   92 1    
    49   23   93 1    
    50   24   25 am   BACKBONE|DICT|INTERRES
    51   24   94 1    
    52   25   26 2    
    53   25   27 1    
    54   27   28 1    
    55   27   29 1    
    56   27   95 1    
    57   28   96 1    
    58   28   97 1    
    59   28   98 1    
    60   29   30 am   BACKBONE|DICT|INTERRES
    61   29   99 1    
    62   30   31 2    
    63   30   32 1    
    64   32   33 1    
    65   32   34 1    
    66   32  100 1    
    67   33  101 1    
    68   33  102 1    
    69   33  103 1    
    70   34   35 am   BACKBONE|DICT|INTERRES
    71   34  104 1    
    72   35   36 2    
    73   37   38 2    
    74   37   39 am   BACKBONE|DICT|INTERRES
    75   39   40 1    
    76   39  105 1    
    77   40   41 1    
    78   40   42 1    
    79   40  106 1    
    80   41  107 1    
    81   41  108 1    
    82   41  109 1    
    83   42   43 2    
    84   42   44 am   BACKBONE|DICT|INTERRES
    85   44   45 1    
    86   44  110 1    
    87   45   46 1    
    88   45   47 1    
    89   45  111 1    
    90   46  112 1    
    91   46  113 1    
    92   46  114 1    
    93   47   48 2    
    94   47   49 am   BACKBONE|DICT|INTERRES
    95   49   50 1    
    96   49  115 1    
    97   50   51 1    
    98   50   52 1    
    99   50  116 1    
   100   51  117 1    
   101   51  118 1    
   102   51  119 1    
   103   52   53 2    
   104   52   54 am   BACKBONE|DICT|INTERRES
   105   54   55 1    
   106   54  120 1    
   107   55   56 1    
   108   55   57 1    
   109   55  121 1    
   110   56  122 1    
   111   56  123 1    
   112   56  124 1    
   113   57   58 2    
   114   57   59 am   BACKBONE|DICT|INTERRES
   115   59   60 1    
   116   59  125 1    
   117   60   61 1    
   118   60   62 1    
   119   60  126 1    
   120   61  127 1    
   121   61  128 1    
   122   61  129 1    
   123   62   63 2    
   124   62   64 am   BACKBONE|DICT|INTERRES
   125   64   65 1    
   126   64  130 1    
   127   65   66 1    
   128   65   69 1    
   129   65  131 1    
   130   66   67 am   BACKBONE|DICT|INTERRES
   131   66   68 2    
   132   67  132 1    
   133   67  133 1    
   134   69   70 1    
   135   69  134 1    
   136   69  135 1    
   137   70   71 1    
   138   71  136 1    
   139   71  137 1    
@<TRIPOS>SUBSTRUCTURE
     1 UNK         1 GROUP             0       ****    0 ROOT    
