@<TRIPOS>MOLECULE
3R137
137   139    1
SMALL
USER_CHARGES


@<TRIPOS>ATOM
      1 CA         27.9513   -4.8388    0.9540 C.3       0 UNK        -0.2020 
      2 C          27.5635   -3.9571   -0.2232 C.2       0 UNK         0.4855 
      3 O          27.7648   -4.3550   -1.3698 O.2       0 UNK        -0.5197 
      4 N          27.0143   -2.7663    0.0599 N.am      1 UNK        -0.4892 
      5 CA         26.5803   -1.7416   -0.9050 C.3       1 UNK         0.0835 
      6 C6         27.7511   -1.0616   -1.6658 C.3       12 UNK        -0.0855 
      7 S7         29.0308   -0.3238   -0.5899 S.3       12 UNK        -0.2931 
      8 C8         30.4280   -1.4892   -0.7465 C.3       12 UNK         0.0378 
      9 C9         30.9009   -1.6610   -2.1852 C.ar      12 UNK        -0.0802 
     10 C10        31.7056   -0.6926   -2.7945 C.ar      12 UNK        -0.0944 
     11 C11        32.1317   -0.8600   -4.1165 C.ar      12 UNK        -0.0787 
     12 C12        31.7390   -1.9954   -4.8307 C.ar      12 UNK        -0.0862 
     13 C13        30.9327   -2.9667   -4.2348 C.ar      12 UNK        -0.0733 
     14 C14        30.5365   -2.8026   -2.9059 C.ar      12 UNK        -0.0832 
     15 C15        30.4910   -4.1967   -5.0176 C.3       12 UNK         0.0240 
     16 S16        29.3372   -3.8009   -6.3743 S.3       12 UNK        -0.2522 
     17 C17        27.9615   -2.9713   -5.5091 C.3       12 UNK        -0.0967 
     18 CA         27.4242   -1.7252   -6.2578 C.3       5 UNK         0.0660 
     19 N          26.1135   -1.3386   -5.7215 N.am      5 UNK        -0.4015 
     20 C          25.2598   -0.4817   -6.2922 C.2       4 UNK         0.4946 
     21 O          25.5086    0.1588   -7.3144 O.2       4 UNK        -0.5353 
     22 CA         23.8793   -0.3498   -5.6391 C.3       4 UNK         0.0277 
     23 CB         23.4472    1.1196   -5.4824 C.3       4 UNK        -0.1981 
     24 N          22.9407   -1.0680   -6.4977 N.am      4 UNK        -0.4209 
     25 C          21.8130   -1.7084   -6.1609 C.2       3 UNK         0.4942 
     26 O          21.1672   -2.3409   -6.9957 O.2       3 UNK        -0.5208 
     27 CA         21.3312   -1.6987   -4.6988 C.3       3 UNK         0.0250 
     28 CB         19.8293   -2.0215   -4.5621 C.3       3 UNK        -0.1990 
     29 N          22.1095   -2.6732   -3.9387 N.am      3 UNK        -0.4232 
     30 C          22.4933   -2.5187   -2.6663 C.2       2 UNK         0.4993 
     31 O          22.1778   -1.5492   -1.9725 O.2       2 UNK        -0.5286 
     32 CA         23.3831   -3.6162   -2.0465 C.3       2 UNK         0.0209 
     33 CB         23.8499   -4.7045   -3.0431 C.3       2 UNK        -0.1931 
     34 N          24.5324   -3.0345   -1.3403 N.am      2 UNK        -0.4546 
     35 C          25.4983   -2.2718   -1.8764 C.2       1 UNK         0.5154 
     36 O          25.5658   -2.0022   -3.0789 O.2       1 UNK        -0.5181 
     37 C          28.4271   -0.5483   -6.2781 C.2       5 UNK         0.5014 
     38 O          29.1980   -0.4094   -7.2326 O.2       5 UNK        -0.5248 
     39 N          28.3600    0.3112   -5.2510 N.am      6 UNK        -0.4434 
     40 CA         29.1496    1.5392   -5.1567 C.3       6 UNK         0.0363 
     41 CB         29.0904    2.0886   -3.7237 C.3       6 UNK        -0.1936 
     42 C          28.7034    2.6051   -6.1710 C.2       6 UNK         0.5081 
     43 O          29.5574    3.2548   -6.7723 O.2       6 UNK        -0.5248 
     44 N          27.3841    2.7471   -6.3747 N.am      7 UNK        -0.4718 
     45 CA         26.7965    3.6826   -7.3433 C.3       7 UNK         0.0273 
     46 CB         25.2941    3.8440   -7.0755 C.3       7 UNK        -0.1935 
     47 C          27.0378    3.2515   -8.7990 C.2       7 UNK         0.5018 
     48 O          27.2224    4.1104   -9.6615 O.2       7 UNK        -0.5186 
     49 N          27.0841    1.9319   -9.0344 N.am      8 UNK        -0.4240 
     50 CA         27.5069    1.3120  -10.2936 C.3       8 UNK         0.0235 
     51 CB         27.1434   -0.1821  -10.2627 C.3       8 UNK        -0.2000 
     52 C          29.0073    1.4970  -10.6027 C.2       8 UNK         0.4941 
     53 O          29.4162    1.2229  -11.7316 O.2       8 UNK        -0.5273 
     54 N          29.7904    1.9549   -9.6118 N.am      9 UNK        -0.4262 
     55 CA         31.2225    2.2595   -9.6645 C.3       9 UNK         0.0264 
     56 CB         31.5016    3.4394  -10.6199 C.3       9 UNK        -0.1955 
     57 C          32.0924    1.0261   -9.9591 C.2       9 UNK         0.5031 
     58 O          33.1091    1.1415  -10.6469 O.2       9 UNK        -0.5390 
     59 N          31.7084   -0.1322   -9.4009 N.am      10 UNK        -0.4204 
     60 CA         32.4189   -1.4075   -9.5637 C.3       10 UNK         0.0237 
     61 CB         31.5580   -2.5389   -8.9863 C.3       10 UNK        -0.1985 
     62 C          33.8422   -1.4268   -8.9672 C.2       10 UNK         0.4970 
     63 O          34.6445   -2.2749   -9.3591 O.2       10 UNK        -0.4914 
     64 N          34.1379   -0.4822   -8.0650 N.am      11 UNK        -0.4285 
     65 CA         35.4865   -0.1848   -7.5588 C.3       11 UNK         0.1007 
     66 C          36.4018    0.5534   -8.5818 C.2       11 UNK         0.5703 
     67 N          35.9010    1.0486   -9.7088 N.am      11 UNK        -0.7361 
     68 O          37.6028    0.6704   -8.3500 O.2       11 UNK        -0.4986 
     69 C69        35.4294    0.5814   -6.2091 C.3       12 UNK        -0.0947 
     70 S70        34.7348   -0.4395   -4.8702 S.3       12 UNK        -0.2240 
     71 C71        33.0239    0.1703   -4.7863 C.3       12 UNK         0.0194 
     72 H72        29.0188   -5.0555    0.9230 H         1 UNK         0.0906 
     73 H73        27.7292   -4.3664    1.9106 H         1 UNK         0.0906 
     74 H74        27.4105   -5.7837    0.9082 H         1 UNK         0.0906 
     75 H75        26.8877   -2.5113    1.0301 H         1 UNK         0.3140 
     76 H76        26.0856   -0.9653   -0.3189 H         1 UNK         0.1085 
     77 H77        28.1996   -1.7674   -2.3591 H         1 UNK         0.0836 
     78 H78        27.3658   -0.2493   -2.2838 H         1 UNK         0.0836 
     79 H79        30.1413   -2.4509   -0.3196 H         1 UNK         0.0731 
     80 H80        31.2562   -1.1258   -0.1366 H         1 UNK         0.0731 
     81 H81        31.9991    0.1874   -2.2386 H         1 UNK         0.1312 
     82 H82        32.0698   -2.1247   -5.8503 H         1 UNK         0.1406 
     83 H83        29.9207   -3.5572   -2.4369 H         1 UNK         0.1631 
     84 H84        30.0186   -4.9269   -4.3585 H         1 UNK         0.0717 
     85 H85        31.3704   -4.6875   -5.4367 H         1 UNK         0.0717 
     86 H86        27.1667   -3.7124   -5.4084 H         1 UNK         0.0934 
     87 H87        28.2430   -2.7128   -4.4895 H         1 UNK         0.0934 
     88 H88        27.2579   -2.0103   -7.2990 H         1 UNK         0.0739 
     89 H89        25.8503   -1.7612   -4.8308 H         1 UNK         0.3093 
     90 H90        23.9241   -0.8023   -4.6499 H         1 UNK         0.0818 
     91 H91        22.5714    1.2193   -4.8433 H         1 UNK         0.0819 
     92 H92        24.2389    1.7176   -5.0299 H         1 UNK         0.0819 
     93 H93        23.1982    1.5659   -6.4446 H         1 UNK         0.0819 
     94 H94        23.2376   -1.1150   -7.4635 H         1 UNK         0.3041 
     95 H95        21.4860   -0.6964   -4.2992 H         1 UNK         0.0784 
     96 H96        19.2265   -1.3330   -5.1557 H         1 UNK         0.0793 
     97 H97        19.5991   -3.0333   -4.8979 H         1 UNK         0.0793 
     98 H98        19.4988   -1.9309   -3.5272 H         1 UNK         0.0793 
     99 H99        22.4264   -3.4843   -4.4522 H         1 UNK         0.3024 
    100 H100       22.7682   -4.1049   -1.2889 H         1 UNK         0.1171 
    101 H101       24.4821   -5.4403   -2.5455 H         1 UNK         0.0786 
    102 H102       23.0033   -5.2496   -3.4623 H         1 UNK         0.0786 
    103 H103       24.4255   -4.2900   -3.8716 H         1 UNK         0.0786 
    104 H104       24.5598   -3.1910   -0.3424 H         1 UNK         0.2977 
    105 H105       27.6991    0.1283   -4.5118 H         1 UNK         0.3127 
    106 H106       30.1894    1.2889   -5.3778 H         1 UNK         0.0770 
    107 H107       28.0695    2.3127   -3.4126 H         1 UNK         0.0814 
    108 H108       29.6689    3.0092   -3.6353 H         1 UNK         0.0814 
    109 H109       29.5114    1.3775   -3.0137 H         1 UNK         0.0814 
    110 H110       26.7464    2.1495   -5.8710 H         1 UNK         0.2983 
    111 H111       27.2736    4.6552   -7.2017 H         1 UNK         0.0947 
    112 H112       24.8774    4.6447   -7.6879 H         1 UNK         0.0806 
    113 H113       25.0923    4.0933   -6.0337 H         1 UNK         0.0806 
    114 H114       24.7494    2.9350   -7.3248 H         1 UNK         0.0806 
    115 H115       26.8154    1.2994   -8.2857 H         1 UNK         0.3000 
    116 H116       26.9489    1.7849  -11.1044 H         1 UNK         0.0850 
    117 H117       27.3905   -0.6652  -11.2089 H         1 UNK         0.0810 
    118 H118       26.0764   -0.3280  -10.0932 H         1 UNK         0.0810 
    119 H119       27.6824   -0.7112   -9.4766 H         1 UNK         0.0810 
    120 H120       29.3518    2.1396   -8.7180 H         1 UNK         0.3040 
    121 H121       31.4969    2.5842   -8.6599 H         1 UNK         0.0766 
    122 H122       31.3128    3.1722  -11.6601 H         1 UNK         0.0812 
    123 H123       32.5417    3.7607  -10.5515 H         1 UNK         0.0812 
    124 H124       30.8806    4.3014  -10.3762 H         1 UNK         0.0812 
    125 H125       30.8637   -0.1473   -8.8393 H         1 UNK         0.3205 
    126 H126       32.5287   -1.5848  -10.6357 H         1 UNK         0.0754 
    127 H127       32.0644   -3.5025   -9.0578 H         1 UNK         0.0769 
    128 H128       30.6117   -2.6291   -9.5202 H         1 UNK         0.0769 
    129 H129       31.3280   -2.3637   -7.9377 H         1 UNK         0.0769 
    130 H130       33.4173    0.1753   -7.8150 H         1 UNK         0.2981 
    131 H131       35.9806   -1.1401   -7.3710 H         1 UNK         0.0541 
    132 H132       34.9147    0.9705   -9.9369 H         1 UNK         0.3459 
    133 H133       36.5208    1.5152  -10.3512 H         1 UNK         0.3459 
    134 H134       34.8622    1.5087   -6.3078 H         1 UNK         0.0612 
    135 H135       36.4315    0.8730   -5.8889 H         1 UNK         0.0612 
    136 H136       32.6453    0.3719   -5.7888 H         1 UNK         0.0624 
    137 H137       33.0021    1.1187   -4.2474 H         1 UNK         0.0624 
@<TRIPOS>BOND
     1    1    2 1    
     2    1   72 1    
     3    1   73 1    
     4    1   74 1    
     5    2    3 2    
     6    2    4 am   BACKBONE|DICT|INTERRES
     7    4    5 1    
     8    4   75 1    
     9    5    6 1    
    10    5   35 1    
    11    5   76 1    
    12    6    7 1    
    13    6   77 1    
    14    6   78 1    
    15    7    8 1    
    16    8    9 1    
    17    8   79 1    
    18    8   80 1    
    19    9   10 ar   
    20    9   14 ar   
    21   10   11 ar   
    22   10   81 1    
    23   11   12 ar   
    24   11   71 1    
    25   12   13 ar   
    26   12   82 1    
    27   13   14 ar   
    28   13   15 1    
    29   14   83 1    
    30   15   16 1    
    31   15   84 1    
    32   15   85 1    
    33   16   17 1    
    34   17   18 1    
    35   17   86 1    
    36   17   87 1    
    37   18   19 1    
    38   18   37 1    
    39   18   88 1    
    40   19   20 am   BACKBONE|DICT|INTERRES
    41   19   89 1    
    42   20   21 2    
    43   20   22 1    
    44   22   23 1    
    45   22   24 1    
    46   22   90 1    
    47   23   91 1    
    48   23   92 1    
    49   23   93 1    
    50   24   25 am   BACKBONE|DICT|INTERRES
    51   24   94 1    
    52   25   26 2    
    53   25   27 1    
    54   27   28 1    
    55   27   29 1    
    56   27   95 1    
    57   28   96 1    
    58   28   97 1    
    59   28   98 1    
    60   29   30 am   BACKBONE|DICT|INTERRES
    61   29   99 1    
    62   30   31 2    
    63   30   32 1    
    64   32   33 1    
    65   32   34 1    
    66   32  100 1    
    67   33  101 1    
    68   33  102 1    
    69   33  103 1    
    70   34   35 am   BACKBONE|DICT|INTERRES
    71   34  104 1    
    72   35   36 2    
    73   37   38 2    
    74   37   39 am   BACKBONE|DICT|INTERRES
    75   39   40 1    
    76   39  105 1    
    77   40   41 1    
    78   40   42 1    
    79   40  106 1    
    80   41  107 1    
    81   41  108 1    
    82   41  109 1    
    83   42   43 2    
    84   42   44 am   BACKBONE|DICT|INTERRES
    85   44   45 1    
    86   44  110 1    
    87   45   46 1    
    88   45   47 1    
    89   45  111 1    
    90   46  112 1    
    91   46  113 1    
    92   46  114 1    
    93   47   48 2    
    94   47   49 am   BACKBONE|DICT|INTERRES
    95   49   50 1    
    96   49  115 1    
    97   50   51 1    
    98   50   52 1    
    99   50  116 1    
   100   51  117 1    
   101   51  118 1    
   102   51  119 1    
   103   52   53 2    
   104   52   54 am   BACKBONE|DICT|INTERRES
   105   54   55 1    
   106   54  120 1    
   107   55   56 1    
   108   55   57 1    
   109   55  121 1    
   110   56  122 1    
   111   56  123 1    
   112   56  124 1    
   113   57   58 2    
   114   57   59 am   BACKBONE|DICT|INTERRES
   115   59   60 1    
   116   59  125 1    
   117   60   61 1    
   118   60   62 1    
   119   60  126 1    
   120   61  127 1    
   121   61  128 1    
   122   61  129 1    
   123   62   63 2    
   124   62   64 am   BACKBONE|DICT|INTERRES
   125   64   65 1    
   126   64  130 1    
   127   65   66 1    
   128   65   69 1    
   129   65  131 1    
   130   66   67 am   BACKBONE|DICT|INTERRES
   131   66   68 2    
   132   67  132 1    
   133   67  133 1    
   134   69   70 1    
   135   69  134 1    
   136   69  135 1    
   137   70   71 1    
   138   71  136 1    
   139   71  137 1    
@<TRIPOS>SUBSTRUCTURE
     1 UNK         1 GROUP             0       ****    0 ROOT    
