@<TRIPOS>MOLECULE
3R137
137   139    1
SMALL
USER_CHARGES


@<TRIPOS>ATOM
      1 CA         24.5389   -6.0267   -4.3305 C.3       0 UNK        -0.2020 
      2 C          24.9643   -5.1819   -3.1395 C.2       0 UNK         0.4855 
      3 O          24.1268   -4.5038   -2.5427 O.2       0 UNK        -0.5197 
      4 N          26.2613   -5.2091   -2.7989 N.am      1 UNK        -0.4892 
      5 CA         26.8902   -4.4255   -1.7272 C.3       1 UNK         0.0835 
      6 C6         28.3976   -4.7658   -1.6136 C.3       12 UNK        -0.0855 
      7 S7         29.2783   -3.8696   -0.2815 S.3       12 UNK        -0.2931 
      8 C8         30.9912   -3.8063   -0.9113 C.3       12 UNK         0.0378 
      9 C9         31.1222   -2.9481   -2.1635 C.ar      12 UNK        -0.0802 
     10 C10        31.1475   -3.5516   -3.4241 C.ar      12 UNK        -0.0944 
     11 C11        31.2197   -2.7851   -4.5893 C.ar      12 UNK        -0.0787 
     12 C12        31.2830   -1.3909   -4.4758 C.ar      12 UNK        -0.0862 
     13 C13        31.3070   -0.7716   -3.2219 C.ar      12 UNK        -0.0733 
     14 C14        31.2248   -1.5566   -2.0667 C.ar      12 UNK        -0.0832 
     15 C15        31.4458    0.7452   -3.1331 C.3       12 UNK         0.0240 
     16 S16        30.0789    1.5811   -2.2557 S.3       12 UNK        -0.2522 
     17 C17        28.5805    0.7410   -2.8653 C.3       12 UNK        -0.0967 
     18 CA         28.3605    0.8161   -4.3977 C.3       5 UNK         0.0660 
     19 N          27.6039   -0.3439   -4.8711 N.am      5 UNK        -0.4015 
     20 C          27.3280   -0.6374   -6.1486 C.2       4 UNK         0.4946 
     21 O          27.7008    0.0340   -7.1070 O.2       4 UNK        -0.5353 
     22 CA         26.4369   -1.8637   -6.3914 C.3       4 UNK         0.0277 
     23 CB         27.2578   -3.1623   -6.3385 C.3       4 UNK        -0.1981 
     24 N          25.3418   -1.9197   -5.4210 N.am      4 UNK        -0.4209 
     25 C          24.2672   -1.1178   -5.4582 C.2       3 UNK         0.4942 
     26 O          24.0443   -0.3123   -6.3619 O.2       3 UNK        -0.5208 
     27 CA         23.2923   -1.2023   -4.2713 C.3       3 UNK         0.0250 
     28 CB         22.2531   -2.3114   -4.4983 C.3       3 UNK        -0.1990 
     29 N          23.9731   -1.4113   -2.9898 N.am      3 UNK        -0.4232 
     30 C          24.7553   -0.4919   -2.4028 C.2       2 UNK         0.4993 
     31 O          24.9628    0.6260   -2.8720 O.2       2 UNK        -0.5286 
     32 CA         25.4721   -0.8907   -1.1011 C.3       2 UNK         0.0209 
     33 CB         24.5932   -0.5624    0.1159 C.3       2 UNK        -0.1931 
     34 N          25.8792   -2.2968   -1.0444 N.am      2 UNK        -0.4546 
     35 C          26.6433   -2.9199   -1.9525 C.2       1 UNK         0.5154 
     36 O          27.0926   -2.3752   -2.9633 O.2       1 UNK        -0.5181 
     37 C          27.7259    2.1530   -4.8329 C.2       5 UNK         0.5014 
     38 O          28.4272    3.0073   -5.3761 O.2       5 UNK        -0.5248 
     39 N          26.4045    2.2930   -4.6434 N.am      6 UNK        -0.4434 
     40 CA         25.6146    3.4540   -5.0694 C.3       6 UNK         0.0363 
     41 CB         24.1856    3.3275   -4.5183 C.3       6 UNK        -0.1936 
     42 C          25.5802    3.6549   -6.5955 C.2       6 UNK         0.5081 
     43 O          25.4952    4.7948   -7.0526 O.2       6 UNK        -0.5248 
     44 N          25.6664    2.5553   -7.3543 N.am      7 UNK        -0.4718 
     45 CA         25.7503    2.5488   -8.8166 C.3       7 UNK         0.0273 
     46 CB         25.1360    1.2362   -9.3335 C.3       7 UNK        -0.1935 
     47 C          27.1906    2.7141   -9.3407 C.2       7 UNK         0.5018 
     48 O          27.3803    2.7231  -10.5585 O.2       7 UNK        -0.5186 
     49 N          28.1806    2.7941   -8.4378 N.am      8 UNK        -0.4240 
     50 CA         29.6344    2.7885   -8.6488 C.3       8 UNK         0.0235 
     51 CB         30.1054    3.9617   -9.5300 C.3       8 UNK        -0.2000 
     52 C          30.1696    1.4406   -9.1602 C.2       8 UNK         0.4941 
     53 O          31.1206    0.9200   -8.5762 O.2       8 UNK        -0.5273 
     54 N          29.5660    0.9163  -10.2384 N.am      9 UNK        -0.4262 
     55 CA         29.7062   -0.4321  -10.8116 C.3       9 UNK         0.0264 
     56 CB         28.9256   -1.4354   -9.9376 C.3       9 UNK        -0.1955 
     57 C          31.1499   -0.9030  -11.0996 C.2       9 UNK         0.5031 
     58 O          31.3923   -2.1092  -11.1678 O.2       9 UNK        -0.5390 
     59 N          32.0774    0.0526  -11.2641 N.am      10 UNK        -0.4204 
     60 CA         33.5309   -0.1227  -11.3820 C.3       10 UNK         0.0237 
     61 CB         33.8988   -0.8487  -12.6946 C.3       10 UNK        -0.1985 
     62 C          34.1826   -0.7639  -10.1349 C.2       10 UNK         0.4970 
     63 O          35.2279   -1.4049  -10.2624 O.2       10 UNK        -0.4914 
     64 N          33.5780   -0.5646   -8.9567 N.am      11 UNK        -0.4285 
     65 CA         34.0534   -1.0702   -7.6589 C.3       11 UNK         0.1007 
     66 C          33.9369   -0.0407   -6.5017 C.2       11 UNK         0.5703 
     67 N          33.1325    1.0095   -6.6148 N.am      11 UNK        -0.7361 
     68 O          34.6244   -0.1761   -5.4927 O.2       11 UNK        -0.4986 
     69 C69        33.4479   -2.4564   -7.3011 C.3       12 UNK        -0.0947 
     70 S70        31.6244   -2.5221   -7.4008 S.3       12 UNK        -0.2240 
     71 C71        31.1903   -3.5154   -5.9334 C.3       12 UNK         0.0194 
     72 H72        25.3607   -6.6270   -4.7204 H         1 UNK         0.0906 
     73 H73        23.7337   -6.7019   -4.0422 H         1 UNK         0.0906 
     74 H74        24.1757   -5.3864   -5.1338 H         1 UNK         0.0906 
     75 H75        26.8937   -5.7777   -3.3436 H         1 UNK         0.3140 
     76 H76        26.4105   -4.7195   -0.7912 H         1 UNK         0.1085 
     77 H77        28.5231   -5.8343   -1.4319 H         1 UNK         0.0836 
     78 H78        28.8764   -4.5679   -2.5708 H         1 UNK         0.0836 
     79 H79        31.3410   -4.8219   -1.1032 H         1 UNK         0.0731 
     80 H80        31.6383   -3.4070   -0.1289 H         1 UNK         0.0731 
     81 H81        31.0862   -4.6287   -3.5008 H         1 UNK         0.1312 
     82 H82        31.3202   -0.7761   -5.3627 H         1 UNK         0.1406 
     83 H83        31.2246   -1.0824   -1.0946 H         1 UNK         0.1631 
     84 H84        31.5304    1.1832   -4.1283 H         1 UNK         0.0717 
     85 H85        32.3813    0.9816   -2.6246 H         1 UNK         0.0717 
     86 H86        28.6567   -0.2980   -2.5426 H         1 UNK         0.0934 
     87 H87        27.7214    1.1440   -2.3270 H         1 UNK         0.0934 
     88 H88        29.3256    0.7514   -4.9007 H         1 UNK         0.0739 
     89 H89        27.3054   -1.0063   -4.1577 H         1 UNK         0.3093 
     90 H90        26.0095   -1.7748   -7.3927 H         1 UNK         0.0818 
     91 H91        28.0441   -3.1489   -7.0946 H         1 UNK         0.0819 
     92 H92        27.7403   -3.3041   -5.3708 H         1 UNK         0.0819 
     93 H93        26.6346   -4.0348   -6.5346 H         1 UNK         0.0819 
     94 H94        25.4871   -2.4973   -4.6041 H         1 UNK         0.3041 
     95 H95        22.7615   -0.2492   -4.2150 H         1 UNK         0.0784 
     96 H96        21.7006   -2.1426   -5.4237 H         1 UNK         0.0793 
     97 H97        22.7173   -3.2949   -4.5718 H         1 UNK         0.0793 
     98 H98        21.5246   -2.3446   -3.6880 H         1 UNK         0.0793 
     99 H99        23.8905   -2.3298   -2.5669 H         1 UNK         0.3024 
    100 H100       26.3807   -0.2908   -1.0333 H         1 UNK         0.1171 
    101 H101       25.1264   -0.7378    1.0505 H         1 UNK         0.0786 
    102 H102       24.2937    0.4868    0.1089 H         1 UNK         0.0786 
    103 H103       23.6818   -1.1615    0.1300 H         1 UNK         0.0786 
    104 H104       25.5260   -2.8325   -0.2644 H         1 UNK         0.2977 
    105 H105       25.8985    1.5682   -4.1351 H         1 UNK         0.3127 
    106 H106       26.0730    4.3437   -4.6328 H         1 UNK         0.0770 
    107 H107       23.6913    2.4276   -4.8876 H         1 UNK         0.0814 
    108 H108       23.5743    4.1820   -4.8118 H         1 UNK         0.0814 
    109 H109       24.1830    3.2867   -3.4289 H         1 UNK         0.0814 
    110 H110       25.7359    1.6546   -6.8978 H         1 UNK         0.2983 
    111 H111       25.1642    3.3799   -9.2150 H         1 UNK         0.0947 
    112 H112       25.1187    1.2113  -10.4238 H         1 UNK         0.0806 
    113 H113       24.1079    1.1171   -8.9909 H         1 UNK         0.0806 
    114 H114       25.7022    0.3673   -8.9961 H         1 UNK         0.0806 
    115 H115       27.9102    2.7292   -7.4628 H         1 UNK         0.3000 
    116 H116       30.0662    2.9344   -7.6573 H         1 UNK         0.0850 
    117 H117       31.1946    3.9963   -9.5766 H         1 UNK         0.0810 
    118 H118       29.7685    4.9169   -9.1273 H         1 UNK         0.0810 
    119 H119       29.7415    3.8837  -10.5546 H         1 UNK         0.0810 
    120 H120       28.8105    1.4766  -10.6271 H         1 UNK         0.3040 
    121 H121       29.2142   -0.3956  -11.7844 H         1 UNK         0.0766 
    122 H122       29.3456   -1.4990   -8.9341 H         1 UNK         0.0812 
    123 H123       28.9372   -2.4386  -10.3648 H         1 UNK         0.0812 
    124 H124       27.8811   -1.1404   -9.8357 H         1 UNK         0.0812 
    125 H125       31.7597    1.0082  -11.1817 H         1 UNK         0.3205 
    126 H126       33.9465    0.8842  -11.4421 H         1 UNK         0.0754 
    127 H127       34.9766   -0.8347  -12.8616 H         1 UNK         0.0769 
    128 H128       33.4337   -0.3705  -13.5566 H         1 UNK         0.0769 
    129 H129       33.5871   -1.8935  -12.6813 H         1 UNK         0.0769 
    130 H130       32.7015   -0.0507   -8.9268 H         1 UNK         0.2981 
    131 H131       35.1309   -1.2220   -7.7462 H         1 UNK         0.0541 
    132 H132       32.4780    1.0844   -7.3889 H         1 UNK         0.3459 
    133 H133       33.1097    1.6881   -5.8725 H         1 UNK         0.3459 
    134 H134       33.7752   -2.7737   -6.3093 H         1 UNK         0.0612 
    135 H135       33.8355   -3.2060   -7.9923 H         1 UNK         0.0612 
    136 H136       30.1844   -3.9079   -6.0815 H         1 UNK         0.0624 
    137 H137       31.8529   -4.3814   -5.8955 H         1 UNK         0.0624 
@<TRIPOS>BOND
     1    1    2 1    
     2    1   72 1    
     3    1   73 1    
     4    1   74 1    
     5    2    3 2    
     6    2    4 am   BACKBONE|DICT|INTERRES
     7    4    5 1    
     8    4   75 1    
     9    5    6 1    
    10    5   35 1    
    11    5   76 1    
    12    6    7 1    
    13    6   77 1    
    14    6   78 1    
    15    7    8 1    
    16    8    9 1    
    17    8   79 1    
    18    8   80 1    
    19    9   10 ar   
    20    9   14 ar   
    21   10   11 ar   
    22   10   81 1    
    23   11   12 ar   
    24   11   71 1    
    25   12   13 ar   
    26   12   82 1    
    27   13   14 ar   
    28   13   15 1    
    29   14   83 1    
    30   15   16 1    
    31   15   84 1    
    32   15   85 1    
    33   16   17 1    
    34   17   18 1    
    35   17   86 1    
    36   17   87 1    
    37   18   19 1    
    38   18   37 1    
    39   18   88 1    
    40   19   20 am   BACKBONE|DICT|INTERRES
    41   19   89 1    
    42   20   21 2    
    43   20   22 1    
    44   22   23 1    
    45   22   24 1    
    46   22   90 1    
    47   23   91 1    
    48   23   92 1    
    49   23   93 1    
    50   24   25 am   BACKBONE|DICT|INTERRES
    51   24   94 1    
    52   25   26 2    
    53   25   27 1    
    54   27   28 1    
    55   27   29 1    
    56   27   95 1    
    57   28   96 1    
    58   28   97 1    
    59   28   98 1    
    60   29   30 am   BACKBONE|DICT|INTERRES
    61   29   99 1    
    62   30   31 2    
    63   30   32 1    
    64   32   33 1    
    65   32   34 1    
    66   32  100 1    
    67   33  101 1    
    68   33  102 1    
    69   33  103 1    
    70   34   35 am   BACKBONE|DICT|INTERRES
    71   34  104 1    
    72   35   36 2    
    73   37   38 2    
    74   37   39 am   BACKBONE|DICT|INTERRES
    75   39   40 1    
    76   39  105 1    
    77   40   41 1    
    78   40   42 1    
    79   40  106 1    
    80   41  107 1    
    81   41  108 1    
    82   41  109 1    
    83   42   43 2    
    84   42   44 am   BACKBONE|DICT|INTERRES
    85   44   45 1    
    86   44  110 1    
    87   45   46 1    
    88   45   47 1    
    89   45  111 1    
    90   46  112 1    
    91   46  113 1    
    92   46  114 1    
    93   47   48 2    
    94   47   49 am   BACKBONE|DICT|INTERRES
    95   49   50 1    
    96   49  115 1    
    97   50   51 1    
    98   50   52 1    
    99   50  116 1    
   100   51  117 1    
   101   51  118 1    
   102   51  119 1    
   103   52   53 2    
   104   52   54 am   BACKBONE|DICT|INTERRES
   105   54   55 1    
   106   54  120 1    
   107   55   56 1    
   108   55   57 1    
   109   55  121 1    
   110   56  122 1    
   111   56  123 1    
   112   56  124 1    
   113   57   58 2    
   114   57   59 am   BACKBONE|DICT|INTERRES
   115   59   60 1    
   116   59  125 1    
   117   60   61 1    
   118   60   62 1    
   119   60  126 1    
   120   61  127 1    
   121   61  128 1    
   122   61  129 1    
   123   62   63 2    
   124   62   64 am   BACKBONE|DICT|INTERRES
   125   64   65 1    
   126   64  130 1    
   127   65   66 1    
   128   65   69 1    
   129   65  131 1    
   130   66   67 am   BACKBONE|DICT|INTERRES
   131   66   68 2    
   132   67  132 1    
   133   67  133 1    
   134   69   70 1    
   135   69  134 1    
   136   69  135 1    
   137   70   71 1    
   138   71  136 1    
   139   71  137 1    
@<TRIPOS>SUBSTRUCTURE
     1 UNK         1 GROUP             0       ****    0 ROOT    
