@<TRIPOS>MOLECULE
3R137
137   139    1
SMALL
USER_CHARGES


@<TRIPOS>ATOM
      1 CA         26.3171   -7.7447   -3.3447 C.3       0 UNK        -0.2020 
      2 C          25.9744   -6.4991   -2.5409 C.2       0 UNK         0.4855 
      3 O          24.8841   -6.4171   -1.9736 O.2       0 UNK        -0.5197 
      4 N          26.9006   -5.5350   -2.4805 N.am      1 UNK        -0.4892 
      5 CA         26.7173   -4.2443   -1.8078 C.3       1 UNK         0.0835 
      6 C6         28.0695   -3.5574   -1.5092 C.3       12 UNK        -0.0855 
      7 S7         29.0837   -4.4762   -0.3018 S.3       12 UNK        -0.2931 
      8 C8         30.6437   -4.7149   -1.2278 C.3       12 UNK         0.0378 
      9 C9         31.3536   -3.4402   -1.6984 C.ar      12 UNK        -0.0802 
     10 C10        32.3970   -3.5662   -2.6209 C.ar      12 UNK        -0.0944 
     11 C11        33.0700   -2.4400   -3.1039 C.ar      12 UNK        -0.0787 
     12 C12        32.6882   -1.1693   -2.6658 C.ar      12 UNK        -0.0862 
     13 C13        31.6370   -1.0222   -1.7565 C.ar      12 UNK        -0.0733 
     14 C14        30.9977   -2.1583   -1.2558 C.ar      12 UNK        -0.0832 
     15 C15        31.1693    0.3589   -1.3198 C.3       12 UNK         0.0240 
     16 S16        29.6873    0.8855   -2.2444 S.3       12 UNK        -0.2522 
     17 C17        30.4382    1.3786   -3.8331 C.3       12 UNK        -0.0967 
     18 CA         29.4650    1.4447   -5.0343 C.3       5 UNK         0.0660 
     19 N          28.7506    0.1894   -5.2739 N.am      5 UNK        -0.4015 
     20 C          28.9586   -0.6070   -6.3320 C.2       4 UNK         0.4946 
     21 O          29.8107   -0.4116   -7.2008 O.2       4 UNK        -0.5353 
     22 CA         28.0036   -1.7985   -6.5054 C.3       4 UNK         0.0277 
     23 CB         28.4472   -2.9628   -5.6083 C.3       4 UNK        -0.1981 
     24 N          26.5989   -1.4760   -6.2355 N.am      4 UNK        -0.4209 
     25 C          25.9242   -0.4181   -6.7158 C.2       3 UNK         0.4942 
     26 O          26.3965    0.4035   -7.5032 O.2       3 UNK        -0.5208 
     27 CA         24.4974   -0.1873   -6.1929 C.3       3 UNK         0.0250 
     28 CB         23.4748   -0.7483   -7.1931 C.3       3 UNK        -0.1990 
     29 N          24.2185   -0.7348   -4.8613 N.am      3 UNK        -0.4232 
     30 C          24.9327   -0.5579   -3.7389 C.2       2 UNK         0.4993 
     31 O          25.9927    0.0733   -3.6859 O.2       2 UNK        -0.5286 
     32 CA         24.3895   -1.2271   -2.4611 C.3       2 UNK         0.0209 
     33 CB         22.9582   -1.7957   -2.6017 C.3       2 UNK        -0.1931 
     34 N          25.2882   -2.2683   -1.9495 N.am      2 UNK        -0.4546 
     35 C          25.8103   -3.3024   -2.6284 C.2       1 UNK         0.5154 
     36 O          25.6305   -3.5020   -3.8345 O.2       1 UNK        -0.5181 
     37 C          28.5163    2.6562   -4.9612 C.2       5 UNK         0.5014 
     38 O          28.9505    3.7480   -5.3293 O.2       5 UNK        -0.5248 
     39 N          27.2495    2.4811   -4.5446 N.am      6 UNK        -0.4434 
     40 CA         26.2772    3.5797   -4.4362 C.3       6 UNK         0.0363 
     41 CB         25.0468    3.1265   -3.6350 C.3       6 UNK        -0.1936 
     42 C          25.8474    4.1596   -5.7955 C.2       6 UNK         0.5081 
     43 O          25.5928    5.3609   -5.8815 O.2       6 UNK        -0.5248 
     44 N          25.7961    3.3088   -6.8287 N.am      7 UNK        -0.4718 
     45 CA         25.5541    3.6917   -8.2238 C.3       7 UNK         0.0273 
     46 CB         24.3541    2.8906   -8.7600 C.3       7 UNK        -0.1935 
     47 C          26.8050    3.4594   -9.0924 C.2       7 UNK         0.5018 
     48 O          26.7317    3.6408  -10.3082 O.2       7 UNK        -0.5186 
     49 N          27.9167    3.0506   -8.4583 N.am      8 UNK        -0.4240 
     50 CA         29.2107    2.6823   -9.0427 C.3       8 UNK         0.0235 
     51 CB         29.9104    3.9282   -9.6270 C.3       8 UNK        -0.2000 
     52 C          29.1238    1.5163  -10.0491 C.2       8 UNK         0.4941 
     53 O          29.9030    1.4797  -11.0030 O.2       8 UNK        -0.5273 
     54 N          28.1869    0.5809   -9.8277 N.am      9 UNK        -0.4262 
     55 CA         27.8900   -0.5237  -10.7448 C.3       9 UNK         0.0264 
     56 CB         26.5538   -1.1743  -10.3504 C.3       9 UNK        -0.1955 
     57 C          28.9990   -1.5865  -10.8562 C.2       9 UNK         0.5031 
     58 O          29.0191   -2.3081  -11.8552 O.2       9 UNK        -0.5390 
     59 N          29.8855   -1.6786   -9.8555 N.am      10 UNK        -0.4204 
     60 CA         31.0060   -2.6235   -9.8326 C.3       10 UNK         0.0237 
     61 CB         30.6493   -3.8307   -8.9485 C.3       10 UNK        -0.1985 
     62 C          32.3079   -1.9668   -9.3557 C.2       10 UNK         0.4970 
     63 O          33.3601   -2.2321   -9.9381 O.2       10 UNK        -0.4914 
     64 N          32.2176   -1.1365   -8.3123 N.am      11 UNK        -0.4285 
     65 CA         33.3445   -0.4843   -7.6305 C.3       11 UNK         0.1007 
     66 C          33.4027    1.0493   -7.8869 C.2       11 UNK         0.5703 
     67 N          32.6490    1.5957   -8.8334 N.am      11 UNK        -0.7361 
     68 O          34.1632    1.7598   -7.2339 O.2       11 UNK        -0.4986 
     69 C69        33.3341   -0.8279   -6.1165 C.3       12 UNK        -0.0947 
     70 S70        33.5918   -2.6091   -5.8151 S.3       12 UNK        -0.2240 
     71 C71        34.2055   -2.6031   -4.1027 C.3       12 UNK         0.0194 
     72 H72        25.6033   -7.8737   -4.1579 H         1 UNK         0.0906 
     73 H73        27.3163   -7.6902   -3.7766 H         1 UNK         0.0906 
     74 H74        26.2713   -8.6273   -2.7073 H         1 UNK         0.0906 
     75 H75        27.7698   -5.6478   -2.9805 H         1 UNK         0.3140 
     76 H76        26.2110   -4.4305   -0.8575 H         1 UNK         0.1085 
     77 H77        27.9164   -2.5579   -1.0974 H         1 UNK         0.0836 
     78 H78        28.6337   -3.4167   -2.4311 H         1 UNK         0.0836 
     79 H79        30.4312   -5.3466   -2.0918 H         1 UNK         0.0731 
     80 H80        31.3314   -5.2789   -0.5964 H         1 UNK         0.0731 
     81 H81        32.6857   -4.5481   -2.9714 H         1 UNK         0.1312 
     82 H82        33.1989   -0.2955   -3.0465 H         1 UNK         0.1406 
     83 H83        30.2034   -2.0240   -0.5366 H         1 UNK         0.1631 
     84 H84        31.9637    1.0965   -1.4441 H         1 UNK         0.0717 
     85 H85        30.9325    0.3439   -0.2548 H         1 UNK         0.0717 
     86 H86        30.9454    2.3359   -3.6963 H         1 UNK         0.0934 
     87 H87        31.2249    0.6676   -4.0756 H         1 UNK         0.0934 
     88 H88        30.0925    1.6542   -5.9030 H         1 UNK         0.0739 
     89 H89        28.0141   -0.0476   -4.6201 H         1 UNK         0.3093 
     90 H90        28.0686   -2.1250   -7.5439 H         1 UNK         0.0818 
     91 H91        27.8631   -3.8624   -5.8038 H         1 UNK         0.0819 
     92 H92        28.3324   -2.7111   -4.5555 H         1 UNK         0.0819 
     93 H93        29.4969   -3.2128   -5.7676 H         1 UNK         0.0819 
     94 H94        26.1215   -2.0785   -5.5747 H         1 UNK         0.3041 
     95 H95        24.3503    0.8916   -6.1303 H         1 UNK         0.0784 
     96 H96        23.6510   -0.3606   -8.1975 H         1 UNK         0.0793 
     97 H97        23.5252   -1.8364   -7.2530 H         1 UNK         0.0793 
     98 H98        22.4566   -0.4729   -6.9178 H         1 UNK         0.0793 
     99 H99        23.3882   -1.3048   -4.7876 H         1 UNK         0.3024 
    100 H100       24.3596   -0.4380   -1.7075 H         1 UNK         0.1171 
    101 H101       22.5922   -2.1636   -1.6429 H         1 UNK         0.0786 
    102 H102       22.2548   -1.0299   -2.9323 H         1 UNK         0.0786 
    103 H103       22.9102   -2.6270   -3.3064 H         1 UNK         0.0786 
    104 H104       25.5380   -2.1703   -0.9750 H         1 UNK         0.2977 
    105 H105       26.9299    1.5690   -4.2240 H         1 UNK         0.3127 
    106 H106       26.7566    4.3858   -3.8762 H         1 UNK         0.0770 
    107 H107       24.4716    2.3699   -4.1676 H         1 UNK         0.0814 
    108 H108       24.3766    3.9666   -3.4479 H         1 UNK         0.0814 
    109 H109       25.3303    2.7167   -2.6654 H         1 UNK         0.0814 
    110 H110       26.0197    2.3320   -6.6784 H         1 UNK         0.2983 
    111 H111       25.3140    4.7547   -8.2948 H         1 UNK         0.0947 
    112 H112       24.0790    3.2242   -9.7613 H         1 UNK         0.0806 
    113 H113       23.4764    3.0147   -8.1257 H         1 UNK         0.0806 
    114 H114       24.5753    1.8256   -8.8252 H         1 UNK         0.0806 
    115 H115       27.8591    2.9776   -7.4534 H         1 UNK         0.3000 
    116 H116       29.8246    2.3163   -8.2192 H         1 UNK         0.0850 
    117 H117       30.9200    3.6942   -9.9652 H         1 UNK         0.0810 
    118 H118       29.9959    4.7193   -8.8821 H         1 UNK         0.0810 
    119 H119       29.3692    4.3305  -10.4838 H         1 UNK         0.0810 
    120 H120       27.5922    0.6613   -9.0062 H         1 UNK         0.3040 
    121 H121       27.7659   -0.0903  -11.7395 H         1 UNK         0.0766 
    122 H122       26.2538   -1.9222  -11.0856 H         1 UNK         0.0812 
    123 H123       25.7526   -0.4370  -10.2933 H         1 UNK         0.0812 
    124 H124       26.6164   -1.6775   -9.3864 H         1 UNK         0.0812 
    125 H125       29.7963   -1.0446   -9.0673 H         1 UNK         0.3205 
    126 H126       31.2006   -2.9910  -10.8426 H         1 UNK         0.0754 
    127 H127       30.4622   -3.5322   -7.9174 H         1 UNK         0.0769 
    128 H128       31.4621   -4.5581   -8.9345 H         1 UNK         0.0769 
    129 H129       29.7604   -4.3433   -9.3168 H         1 UNK         0.0769 
    130 H130       31.3106   -0.9475   -7.8893 H         1 UNK         0.2981 
    131 H131       34.2830   -0.8620   -8.0394 H         1 UNK         0.0541 
    132 H132       32.0583    1.0245   -9.4158 H         1 UNK         0.3459 
    133 H133       32.7209    2.5862   -8.9988 H         1 UNK         0.3459 
    134 H134       32.3860   -0.5337   -5.6660 H         1 UNK         0.0612 
    135 H135       34.1164   -0.2786   -5.5903 H         1 UNK         0.0612 
    136 H136       34.9505   -1.8168   -3.9730 H         1 UNK         0.0624 
    137 H137       34.7252   -3.5442   -3.9171 H         1 UNK         0.0624 
@<TRIPOS>BOND
     1    1    2 1    
     2    1   72 1    
     3    1   73 1    
     4    1   74 1    
     5    2    3 2    
     6    2    4 am   BACKBONE|DICT|INTERRES
     7    4    5 1    
     8    4   75 1    
     9    5    6 1    
    10    5   35 1    
    11    5   76 1    
    12    6    7 1    
    13    6   77 1    
    14    6   78 1    
    15    7    8 1    
    16    8    9 1    
    17    8   79 1    
    18    8   80 1    
    19    9   10 ar   
    20    9   14 ar   
    21   10   11 ar   
    22   10   81 1    
    23   11   12 ar   
    24   11   71 1    
    25   12   13 ar   
    26   12   82 1    
    27   13   14 ar   
    28   13   15 1    
    29   14   83 1    
    30   15   16 1    
    31   15   84 1    
    32   15   85 1    
    33   16   17 1    
    34   17   18 1    
    35   17   86 1    
    36   17   87 1    
    37   18   19 1    
    38   18   37 1    
    39   18   88 1    
    40   19   20 am   BACKBONE|DICT|INTERRES
    41   19   89 1    
    42   20   21 2    
    43   20   22 1    
    44   22   23 1    
    45   22   24 1    
    46   22   90 1    
    47   23   91 1    
    48   23   92 1    
    49   23   93 1    
    50   24   25 am   BACKBONE|DICT|INTERRES
    51   24   94 1    
    52   25   26 2    
    53   25   27 1    
    54   27   28 1    
    55   27   29 1    
    56   27   95 1    
    57   28   96 1    
    58   28   97 1    
    59   28   98 1    
    60   29   30 am   BACKBONE|DICT|INTERRES
    61   29   99 1    
    62   30   31 2    
    63   30   32 1    
    64   32   33 1    
    65   32   34 1    
    66   32  100 1    
    67   33  101 1    
    68   33  102 1    
    69   33  103 1    
    70   34   35 am   BACKBONE|DICT|INTERRES
    71   34  104 1    
    72   35   36 2    
    73   37   38 2    
    74   37   39 am   BACKBONE|DICT|INTERRES
    75   39   40 1    
    76   39  105 1    
    77   40   41 1    
    78   40   42 1    
    79   40  106 1    
    80   41  107 1    
    81   41  108 1    
    82   41  109 1    
    83   42   43 2    
    84   42   44 am   BACKBONE|DICT|INTERRES
    85   44   45 1    
    86   44  110 1    
    87   45   46 1    
    88   45   47 1    
    89   45  111 1    
    90   46  112 1    
    91   46  113 1    
    92   46  114 1    
    93   47   48 2    
    94   47   49 am   BACKBONE|DICT|INTERRES
    95   49   50 1    
    96   49  115 1    
    97   50   51 1    
    98   50   52 1    
    99   50  116 1    
   100   51  117 1    
   101   51  118 1    
   102   51  119 1    
   103   52   53 2    
   104   52   54 am   BACKBONE|DICT|INTERRES
   105   54   55 1    
   106   54  120 1    
   107   55   56 1    
   108   55   57 1    
   109   55  121 1    
   110   56  122 1    
   111   56  123 1    
   112   56  124 1    
   113   57   58 2    
   114   57   59 am   BACKBONE|DICT|INTERRES
   115   59   60 1    
   116   59  125 1    
   117   60   61 1    
   118   60   62 1    
   119   60  126 1    
   120   61  127 1    
   121   61  128 1    
   122   61  129 1    
   123   62   63 2    
   124   62   64 am   BACKBONE|DICT|INTERRES
   125   64   65 1    
   126   64  130 1    
   127   65   66 1    
   128   65   69 1    
   129   65  131 1    
   130   66   67 am   BACKBONE|DICT|INTERRES
   131   66   68 2    
   132   67  132 1    
   133   67  133 1    
   134   69   70 1    
   135   69  134 1    
   136   69  135 1    
   137   70   71 1    
   138   71  136 1    
   139   71  137 1    
@<TRIPOS>SUBSTRUCTURE
     1 UNK         1 GROUP             0       ****    0 ROOT    
