@<TRIPOS>MOLECULE
3R137
137   139    1
SMALL
USER_CHARGES


@<TRIPOS>ATOM
      1 CA         28.3005   -8.4200   -1.1950 C.3       0 UNK        -0.2020 
      2 C          27.3207   -7.3014   -0.8731 C.2       0 UNK         0.4855 
      3 O          26.3936   -7.5052   -0.0883 O.2       0 UNK        -0.5197 
      4 N          27.5231   -6.1193   -1.4659 N.am      1 UNK        -0.4892 
      5 CA         26.6344   -4.9601   -1.3488 C.3       1 UNK         0.0835 
      6 C6         27.3715   -3.6312   -1.6744 C.3       12 UNK        -0.0855 
      7 S7         28.2441   -3.6201   -3.2852 S.3       12 UNK        -0.2931 
      8 C8         29.9834   -3.7939   -2.7685 C.3       12 UNK         0.0378 
      9 C9         30.7231   -2.4617   -2.7499 C.ar      12 UNK        -0.0802 
     10 C10        31.8277   -2.2685   -3.5838 C.ar      12 UNK        -0.0944 
     11 C11        32.5380   -1.0648   -3.5631 C.ar      12 UNK        -0.0787 
     12 C12        32.1335   -0.0406   -2.7020 C.ar      12 UNK        -0.0862 
     13 C13        31.0379   -0.2254   -1.8521 C.ar      12 UNK        -0.0733 
     14 C14        30.3378   -1.4359   -1.8809 C.ar      12 UNK        -0.0832 
     15 C15        30.6306    0.8600   -0.8671 C.3       12 UNK         0.0240 
     16 S16        29.1274    1.7358   -1.3974 S.3       12 UNK        -0.2522 
     17 C17        29.7604    2.8058   -2.7348 C.3       12 UNK        -0.0967 
     18 CA         29.1973    2.4399   -4.1347 C.3       5 UNK         0.0660 
     19 N          27.7265    2.3953   -4.1248 N.am      5 UNK        -0.4015 
     20 C          26.9257    1.8173   -5.0290 C.2       4 UNK         0.4946 
     21 O          27.3212    1.2933   -6.0760 O.2       4 UNK        -0.5353 
     22 CA         25.4177    1.8939   -4.7514 C.3       4 UNK         0.0277 
     23 CB         24.7816    3.0270   -5.5736 C.3       4 UNK        -0.1981 
     24 N          24.7681    0.6261   -5.0835 N.am      4 UNK        -0.4209 
     25 C          24.8859   -0.4875   -4.3517 C.2       3 UNK         0.4942 
     26 O          25.4631   -0.5407   -3.2613 O.2       3 UNK        -0.5208 
     27 CA         24.2596   -1.7571   -4.9370 C.3       3 UNK         0.0250 
     28 CB         25.2204   -2.4344   -5.9314 C.3       3 UNK        -0.1990 
     29 N          23.9810   -2.6594   -3.8287 N.am      3 UNK        -0.4232 
     30 C          23.0644   -3.6318   -3.7928 C.2       2 UNK         0.4993 
     31 O          22.3150   -3.9007   -4.7337 O.2       2 UNK        -0.5286 
     32 CA         22.9685   -4.4228   -2.4702 C.3       2 UNK         0.0209 
     33 CB         22.3073   -5.8085   -2.6406 C.3       2 UNK        -0.1931 
     34 N          24.2604   -4.5267   -1.7706 N.am      2 UNK        -0.4546 
     35 C          25.3685   -5.1434   -2.2130 C.2       1 UNK         0.5154 
     36 O          25.4261   -5.7959   -3.2593 O.2       1 UNK        -0.5181 
     37 C          29.7506    3.3815   -5.2342 C.2       5 UNK         0.5014 
     38 O          30.5748    4.2540   -4.9534 O.2       5 UNK        -0.5248 
     39 N          29.2619    3.2058   -6.4616 N.am      6 UNK        -0.4434 
     40 CA         29.5675    3.9787   -7.6549 C.3       6 UNK         0.0363 
     41 CB         28.6994    5.2548   -7.6957 C.3       6 UNK        -0.1936 
     42 C          29.3869    3.0429   -8.8571 C.2       6 UNK         0.5081 
     43 O          29.8547    1.9045   -8.8015 O.2       6 UNK        -0.5248 
     44 N          28.7155    3.5079   -9.9180 N.am      7 UNK        -0.4718 
     45 CA         28.5170    2.7830  -11.1790 C.3       7 UNK         0.0273 
     46 CB         27.8065    3.7046  -12.1832 C.3       7 UNK        -0.1935 
     47 C          27.7623    1.4460  -11.0529 C.2       7 UNK         0.5018 
     48 O          27.9969    0.5556  -11.8694 O.2       7 UNK        -0.5186 
     49 N          26.8907    1.3188  -10.0412 N.am      8 UNK        -0.4240 
     50 CA         26.1361    0.0962   -9.7503 C.3       8 UNK         0.0235 
     51 CB         24.9963    0.4069   -8.7689 C.3       8 UNK        -0.2000 
     52 C          27.0376   -1.0359   -9.2277 C.2       8 UNK         0.4941 
     53 O          26.9703   -2.1490   -9.7494 O.2       8 UNK        -0.5273 
     54 N          27.8874   -0.7263   -8.2368 N.am      9 UNK        -0.4262 
     55 CA         28.9212   -1.6317   -7.7205 C.3       9 UNK         0.0264 
     56 CB         29.3868   -1.1327   -6.3422 C.3       9 UNK        -0.1955 
     57 C          30.1300   -1.7840   -8.6668 C.2       9 UNK         0.5031 
     58 O          30.9044   -2.7260   -8.4953 O.2       9 UNK        -0.5390 
     59 N          30.2699   -0.8543   -9.6246 N.am      10 UNK        -0.4204 
     60 CA         31.4019   -0.6443  -10.5355 C.3       10 UNK         0.0237 
     61 CB         31.6665   -1.8770  -11.4265 C.3       10 UNK        -0.1985 
     62 C          32.6470   -0.1445   -9.7780 C.2       10 UNK         0.4970 
     63 O          33.7640   -0.5863  -10.0542 O.2       10 UNK        -0.4914 
     64 N          32.4111    0.7750   -8.8357 N.am      11 UNK        -0.4285 
     65 CA         33.3966    1.3766   -7.9262 C.3       11 UNK         0.1007 
     66 C          33.5274    2.9159   -8.1126 C.2       11 UNK         0.5703 
     67 N          32.9403    3.5140   -9.1437 N.am      11 UNK        -0.7361 
     68 O          34.1986    3.5813   -7.3278 O.2       11 UNK        -0.4986 
     69 C69        33.1002    0.9793   -6.4534 C.3       12 UNK        -0.0947 
     70 S70        33.3341   -0.8115   -6.2021 S.3       12 UNK        -0.2240 
     71 C71        33.7701   -0.9052   -4.4403 C.3       12 UNK         0.0194 
     72 H72        29.0774   -8.0955   -1.8871 H         1 UNK         0.0906 
     73 H73        28.7838   -8.7698   -0.2831 H         1 UNK         0.0906 
     74 H74        27.7743   -9.2608   -1.6462 H         1 UNK         0.0906 
     75 H75        28.2593   -6.0192   -2.1500 H         1 UNK         0.3140 
     76 H76        26.3068   -4.9031   -0.3078 H         1 UNK         0.1085 
     77 H77        28.0831   -3.4194   -0.8760 H         1 UNK         0.0836 
     78 H78        26.6765   -2.7892   -1.6607 H         1 UNK         0.0836 
     79 H79        30.4678   -4.4840   -3.4610 H         1 UNK         0.0731 
     80 H80        30.0509   -4.2633   -1.7863 H         1 UNK         0.0731 
     81 H81        32.1458   -3.0590   -4.2500 H         1 UNK         0.1312 
     82 H82        32.6861    0.8886   -2.6755 H         1 UNK         0.1406 
     83 H83        29.4917   -1.5759   -1.2233 H         1 UNK         0.1631 
     84 H84        31.4400    1.5753   -0.7126 H         1 UNK         0.0717 
     85 H85        30.4423    0.4055    0.1067 H         1 UNK         0.0717 
     86 H86        29.5050    3.8362   -2.4793 H         1 UNK         0.0934 
     87 H87        30.8511    2.7644   -2.7438 H         1 UNK         0.0934 
     88 H88        29.5525    1.4360   -4.3789 H         1 UNK         0.0739 
     89 H89        27.2990    2.8148   -3.3123 H         1 UNK         0.3093 
     90 H90        25.2552    2.0988   -3.6907 H         1 UNK         0.0818 
     91 H91        25.2229    3.9906   -5.3153 H         1 UNK         0.0819 
     92 H92        24.9243    2.8840   -6.6453 H         1 UNK         0.0819 
     93 H93        23.7107    3.1024   -5.3844 H         1 UNK         0.0819 
     94 H94        24.2912    0.5813   -5.9711 H         1 UNK         0.3041 
     95 H95        23.3251   -1.4946   -5.4377 H         1 UNK         0.0784 
     96 H96        25.4763   -1.7643   -6.7507 H         1 UNK         0.0793 
     97 H97        26.1548   -2.7266   -5.4500 H         1 UNK         0.0793 
     98 H98        24.7765   -3.3288   -6.3685 H         1 UNK         0.0793 
     99 H99        24.5321   -2.4614   -3.0028 H         1 UNK         0.3024 
    100 H100       22.3173   -3.8322   -1.8234 H         1 UNK         0.1171 
    101 H101       22.8504   -6.4350   -3.3486 H         1 UNK         0.0786 
    102 H102       22.2536   -6.3424   -1.6919 H         1 UNK         0.0786 
    103 H103       21.2872   -5.7107   -3.0139 H         1 UNK         0.0786 
    104 H104       24.3138   -4.0243   -0.8944 H         1 UNK         0.2977 
    105 H105       28.6048    2.4362   -6.5891 H         1 UNK         0.3127 
    106 H106       30.6197    4.2677   -7.6316 H         1 UNK         0.0770 
    107 H107       28.9513    5.8821   -8.5516 H         1 UNK         0.0814 
    108 H108       28.8582    5.8636   -6.8055 H         1 UNK         0.0814 
    109 H109       27.6350    5.0214   -7.7467 H         1 UNK         0.0814 
    110 H110       28.3536    4.4501   -9.8783 H         1 UNK         0.2983 
    111 H111       29.5074    2.5489  -11.5759 H         1 UNK         0.0947 
    112 H112       27.6677    3.2042  -13.1429 H         1 UNK         0.0806 
    113 H113       28.3865    4.6078  -12.3740 H         1 UNK         0.0806 
    114 H114       26.8203    4.0057  -11.8276 H         1 UNK         0.0806 
    115 H115       26.7656    2.1017   -9.4166 H         1 UNK         0.3000 
    116 H116       25.6858   -0.2479  -10.6843 H         1 UNK         0.0850 
    117 H117       25.3788    0.7745   -7.8189 H         1 UNK         0.0810 
    118 H118       24.4024   -0.4852   -8.5661 H         1 UNK         0.0810 
    119 H119       24.3194    1.1599   -9.1728 H         1 UNK         0.0810 
    120 H120       27.8293    0.1868   -7.7985 H         1 UNK         0.3040 
    121 H121       28.4796   -2.6220   -7.5904 H         1 UNK         0.0766 
    122 H122       28.5636   -1.1059   -5.6276 H         1 UNK         0.0812 
    123 H123       29.8183   -0.1329   -6.4008 H         1 UNK         0.0812 
    124 H124       30.1498   -1.7912   -5.9254 H         1 UNK         0.0812 
    125 H125       29.5968   -0.0978   -9.6059 H         1 UNK         0.3205 
    126 H126       31.1034    0.1722  -11.1948 H         1 UNK         0.0754 
    127 H127       32.4018   -1.6469  -12.1983 H         1 UNK         0.0769 
    128 H128       30.7569   -2.2023  -11.9314 H         1 UNK         0.0769 
    129 H129       32.0540   -2.7200  -10.8540 H         1 UNK         0.0769 
    130 H130       31.4563    1.1099   -8.7187 H         1 UNK         0.2981 
    131 H131       34.3887    0.9964   -8.1749 H         1 UNK         0.0541 
    132 H132       32.4242    2.9759   -9.8201 H         1 UNK         0.3459 
    133 H133       33.0557    4.5074   -9.2657 H         1 UNK         0.3459 
    134 H134       32.0807    1.2492   -6.1726 H         1 UNK         0.0612 
    135 H135       33.7628    1.5114   -5.7693 H         1 UNK         0.0612 
    136 H136       34.3581   -0.0348   -4.1465 H         1 UNK         0.0624 
    137 H137       34.4188   -1.7697   -4.2929 H         1 UNK         0.0624 
@<TRIPOS>BOND
     1    1    2 1    
     2    1   72 1    
     3    1   73 1    
     4    1   74 1    
     5    2    3 2    
     6    2    4 am   BACKBONE|DICT|INTERRES
     7    4    5 1    
     8    4   75 1    
     9    5    6 1    
    10    5   35 1    
    11    5   76 1    
    12    6    7 1    
    13    6   77 1    
    14    6   78 1    
    15    7    8 1    
    16    8    9 1    
    17    8   79 1    
    18    8   80 1    
    19    9   10 ar   
    20    9   14 ar   
    21   10   11 ar   
    22   10   81 1    
    23   11   12 ar   
    24   11   71 1    
    25   12   13 ar   
    26   12   82 1    
    27   13   14 ar   
    28   13   15 1    
    29   14   83 1    
    30   15   16 1    
    31   15   84 1    
    32   15   85 1    
    33   16   17 1    
    34   17   18 1    
    35   17   86 1    
    36   17   87 1    
    37   18   19 1    
    38   18   37 1    
    39   18   88 1    
    40   19   20 am   BACKBONE|DICT|INTERRES
    41   19   89 1    
    42   20   21 2    
    43   20   22 1    
    44   22   23 1    
    45   22   24 1    
    46   22   90 1    
    47   23   91 1    
    48   23   92 1    
    49   23   93 1    
    50   24   25 am   BACKBONE|DICT|INTERRES
    51   24   94 1    
    52   25   26 2    
    53   25   27 1    
    54   27   28 1    
    55   27   29 1    
    56   27   95 1    
    57   28   96 1    
    58   28   97 1    
    59   28   98 1    
    60   29   30 am   BACKBONE|DICT|INTERRES
    61   29   99 1    
    62   30   31 2    
    63   30   32 1    
    64   32   33 1    
    65   32   34 1    
    66   32  100 1    
    67   33  101 1    
    68   33  102 1    
    69   33  103 1    
    70   34   35 am   BACKBONE|DICT|INTERRES
    71   34  104 1    
    72   35   36 2    
    73   37   38 2    
    74   37   39 am   BACKBONE|DICT|INTERRES
    75   39   40 1    
    76   39  105 1    
    77   40   41 1    
    78   40   42 1    
    79   40  106 1    
    80   41  107 1    
    81   41  108 1    
    82   41  109 1    
    83   42   43 2    
    84   42   44 am   BACKBONE|DICT|INTERRES
    85   44   45 1    
    86   44  110 1    
    87   45   46 1    
    88   45   47 1    
    89   45  111 1    
    90   46  112 1    
    91   46  113 1    
    92   46  114 1    
    93   47   48 2    
    94   47   49 am   BACKBONE|DICT|INTERRES
    95   49   50 1    
    96   49  115 1    
    97   50   51 1    
    98   50   52 1    
    99   50  116 1    
   100   51  117 1    
   101   51  118 1    
   102   51  119 1    
   103   52   53 2    
   104   52   54 am   BACKBONE|DICT|INTERRES
   105   54   55 1    
   106   54  120 1    
   107   55   56 1    
   108   55   57 1    
   109   55  121 1    
   110   56  122 1    
   111   56  123 1    
   112   56  124 1    
   113   57   58 2    
   114   57   59 am   BACKBONE|DICT|INTERRES
   115   59   60 1    
   116   59  125 1    
   117   60   61 1    
   118   60   62 1    
   119   60  126 1    
   120   61  127 1    
   121   61  128 1    
   122   61  129 1    
   123   62   63 2    
   124   62   64 am   BACKBONE|DICT|INTERRES
   125   64   65 1    
   126   64  130 1    
   127   65   66 1    
   128   65   69 1    
   129   65  131 1    
   130   66   67 am   BACKBONE|DICT|INTERRES
   131   66   68 2    
   132   67  132 1    
   133   67  133 1    
   134   69   70 1    
   135   69  134 1    
   136   69  135 1    
   137   70   71 1    
   138   71  136 1    
   139   71  137 1    
@<TRIPOS>SUBSTRUCTURE
     1 UNK         1 GROUP             0       ****    0 ROOT    
