@<TRIPOS>MOLECULE
3R137
137   139    1
SMALL
USER_CHARGES


@<TRIPOS>ATOM
      1 CA         25.4259   -6.0515   -5.0421 C.3       0 UNK        -0.2020 
      2 C          25.7608   -5.3075   -3.7586 C.2       0 UNK         0.4855 
      3 O          24.8544   -4.8702   -3.0491 O.2       0 UNK        -0.5197 
      4 N          27.0577   -5.1484   -3.4633 N.am      1 UNK        -0.4892 
      5 CA         27.5944   -4.4366   -2.2975 C.3       1 UNK         0.0835 
      6 C6         29.1333   -4.5834   -2.2405 C.3       12 UNK        -0.0855 
      7 S7         29.8577   -3.9904   -0.6731 S.3       12 UNK        -0.2931 
      8 C8         31.4686   -3.3472   -1.2339 C.3       12 UNK         0.0378 
      9 C9         31.3242   -2.1103   -2.1105 C.ar      12 UNK        -0.0802 
     10 C10        31.5218   -2.1953   -3.4919 C.ar      12 UNK        -0.0944 
     11 C11        31.3841   -1.0636   -4.3067 C.ar      12 UNK        -0.0787 
     12 C12        31.0834    0.1640   -3.7096 C.ar      12 UNK        -0.0862 
     13 C13        30.8615    0.2629   -2.3312 C.ar      12 UNK        -0.0733 
     14 C14        30.9924   -0.8804   -1.5379 C.ar      12 UNK        -0.0832 
     15 C15        30.4705    1.5868   -1.6755 C.3       12 UNK         0.0240 
     16 S16        29.3117    2.6150   -2.6478 S.3       12 UNK        -0.2522 
     17 C17        27.9850    1.4391   -3.0850 C.3       12 UNK        -0.0967 
     18 CA         27.8183    1.3275   -4.6250 C.3       5 UNK         0.0660 
     19 N          27.4727   -0.0287   -5.0552 N.am      5 UNK        -0.4015 
     20 C          27.3945   -0.4395   -6.3298 C.2       4 UNK         0.4946 
     21 O          27.7225    0.2488   -7.2969 O.2       4 UNK        -0.5353 
     22 CA         26.7830   -1.8307   -6.5678 C.3       4 UNK         0.0277 
     23 CB         27.8443   -2.9380   -6.4707 C.3       4 UNK        -0.1981 
     24 N          25.6886   -2.0997   -5.6309 N.am      4 UNK        -0.4209 
     25 C          24.4867   -1.5061   -5.6923 C.2       3 UNK         0.4942 
     26 O          24.1525   -0.7393   -6.5936 O.2       3 UNK        -0.5208 
     27 CA         23.5086   -1.7680   -4.5347 C.3       3 UNK         0.0250 
     28 CB         22.6207   -2.9863   -4.8309 C.3       3 UNK        -0.1990 
     29 N          24.1932   -1.9402   -3.2503 N.am      3 UNK        -0.4232 
     30 C          24.7913   -0.9359   -2.5902 C.2       2 UNK         0.4993 
     31 O          24.7802    0.2320   -2.9780 O.2       2 UNK        -0.5286 
     32 CA         25.5858   -1.2904   -1.3199 C.3       2 UNK         0.0209 
     33 CB         24.6789   -1.2223   -0.0815 C.3       2 UNK        -0.1931 
     34 N          26.2359   -2.6032   -1.3808 N.am      2 UNK        -0.4546 
     35 C          27.1371   -2.9620   -2.3058 C.2       1 UNK         0.5154 
     36 O          27.5405   -2.2016   -3.1875 O.2       1 UNK        -0.5181 
     37 C          26.8191    2.3702   -5.1676 C.2       5 UNK         0.5014 
     38 O          27.2423    3.3560   -5.7715 O.2       5 UNK        -0.5248 
     39 N          25.5136    2.1123   -4.9900 N.am      6 UNK        -0.4434 
     40 CA         24.4159    2.9405   -5.5031 C.3       6 UNK         0.0363 
     41 CB         23.0759    2.4083   -4.9721 C.3       6 UNK        -0.1936 
     42 C          24.3874    3.0409   -7.0394 C.2       6 UNK         0.5081 
     43 O          24.0809    4.1090   -7.5693 O.2       6 UNK        -0.5248 
     44 N          24.7410    1.9458   -7.7262 N.am      7 UNK        -0.4718 
     45 CA         24.9154    1.8859   -9.1813 C.3       7 UNK         0.0273 
     46 CB         24.8813    0.4146   -9.6274 C.3       7 UNK        -0.1935 
     47 C          26.2038    2.5686   -9.6852 C.2       7 UNK         0.5018 
     48 O          26.3553    2.7183  -10.8986 O.2       7 UNK        -0.5186 
     49 N          27.1008    2.9569   -8.7656 N.am      8 UNK        -0.4240 
     50 CA         28.4118    3.5728   -8.9907 C.3       8 UNK         0.0235 
     51 CB         28.2663    4.9719   -9.6275 C.3       8 UNK        -0.2000 
     52 C          29.3851    2.6526   -9.7516 C.2       8 UNK         0.4941 
     53 O          30.1227    3.1221  -10.6218 O.2       8 UNK        -0.5273 
     54 N          29.3788    1.3570   -9.4079 N.am      9 UNK        -0.4262 
     55 CA         30.3295    0.3669   -9.9166 C.3       9 UNK         0.0264 
     56 CB         29.7990   -1.0402   -9.6002 C.3       9 UNK        -0.1955 
     57 C          31.7275    0.5653   -9.3033 C.2       9 UNK         0.5031 
     58 O          31.8459    1.1023   -8.1990 O.2       9 UNK        -0.5390 
     59 N          32.7612    0.1064  -10.0207 N.am      10 UNK        -0.4204 
     60 CA         34.1528    0.1354   -9.5583 C.3       10 UNK         0.0237 
     61 CB         35.0996   -0.0109  -10.7613 C.3       10 UNK        -0.1985 
     62 C          34.4492   -0.9436   -8.5016 C.2       10 UNK         0.4970 
     63 O          35.1929   -0.6716   -7.5582 O.2       10 UNK        -0.4914 
     64 N          33.8595   -2.1340   -8.6841 N.am      11 UNK        -0.4285 
     65 CA         34.0194   -3.3305   -7.8385 C.3       11 UNK         0.1007 
     66 C          35.4900   -3.8521   -7.7816 C.2       11 UNK         0.5703 
     67 N          35.8735   -4.6001   -6.7546 N.am      11 UNK        -0.7361 
     68 O          36.2803   -3.6344   -8.6990 O.2       11 UNK        -0.4986 
     69 C69        33.3353   -3.1838   -6.4457 C.3       12 UNK        -0.0947 
     70 S70        31.5656   -2.7632   -6.5882 S.3       12 UNK        -0.2240 
     71 C71        31.5275   -1.1030   -5.8296 C.3       12 UNK         0.0194 
     72 H72        25.0348   -5.3601   -5.7878 H         1 UNK         0.0906 
     73 H73        26.2992   -6.5483   -5.4643 H         1 UNK         0.0906 
     74 H74        24.6677   -6.8101   -4.8492 H         1 UNK         0.0906 
     75 H75        27.7509   -5.5186   -4.0978 H         1 UNK         0.3140 
     76 H76        27.1802   -4.9221   -1.4111 H         1 UNK         0.1085 
     77 H77        29.4097   -5.6341   -2.3419 H         1 UNK         0.0836 
     78 H78        29.5878   -4.0739   -3.0904 H         1 UNK         0.0836 
     79 H79        32.0078   -4.1363   -1.7606 H         1 UNK         0.0731 
     80 H80        32.0724   -3.0993   -0.3597 H         1 UNK         0.0731 
     81 H81        31.7690   -3.1542   -3.9227 H         1 UNK         0.1312 
     82 H82        30.9929    1.0444   -4.3303 H         1 UNK         0.1406 
     83 H83        30.8275   -0.8201   -0.4705 H         1 UNK         0.1631 
     84 H84        31.3763    2.1643   -1.4878 H         1 UNK         0.0717 
     85 H85        30.0145    1.4038   -0.7012 H         1 UNK         0.0717 
     86 H86        28.2228    0.4645   -2.6574 H         1 UNK         0.0934 
     87 H87        27.0613    1.7455   -2.5899 H         1 UNK         0.0934 
     88 H88        28.7792    1.5375   -5.0993 H         1 UNK         0.0739 
     89 H89        27.2850   -0.7088   -4.3233 H         1 UNK         0.3093 
     90 H90        26.3737   -1.8482   -7.5799 H         1 UNK         0.0818 
     91 H91        28.3851   -2.9124   -5.5245 H         1 UNK         0.0819 
     92 H92        27.4005   -3.9273   -6.5797 H         1 UNK         0.0819 
     93 H93        28.5831   -2.8315   -7.2642 H         1 UNK         0.0819 
     94 H94        25.9139   -2.6554   -4.8181 H         1 UNK         0.3041 
     95 H95        22.8564   -0.8961   -4.4523 H         1 UNK         0.0784 
     96 H96        22.0562   -2.8389   -5.7527 H         1 UNK         0.0793 
     97 H97        23.2038   -3.8984   -4.9513 H         1 UNK         0.0793 
     98 H98        21.8979   -3.1538   -4.0323 H         1 UNK         0.0793 
     99 H99        24.2835   -2.8891   -2.8992 H         1 UNK         0.3024 
    100 H100       26.3713   -0.5399   -1.2102 H         1 UNK         0.1171 
    101 H101       24.1992   -0.2454   -0.0032 H         1 UNK         0.0786 
    102 H102       25.2473   -1.3759    0.8360 H         1 UNK         0.0786 
    103 H103       23.8876   -1.9722   -0.1175 H         1 UNK         0.0786 
    104 H104       25.9227   -3.2941   -0.7138 H         1 UNK         0.2977 
    105 H105       25.2488    1.3124   -4.4173 H         1 UNK         0.3127 
    106 H106       24.5603    3.9495   -5.1114 H         1 UNK         0.0770 
    107 H107       22.8717    1.4006   -5.3341 H         1 UNK         0.0814 
    108 H108       22.2496    3.0435   -5.2938 H         1 UNK         0.0814 
    109 H109       23.0611    2.3829   -3.8823 H         1 UNK         0.0814 
    110 H110       24.8966    1.0820   -7.2163 H         1 UNK         0.2983 
    111 H111       24.0744    2.4034   -9.6478 H         1 UNK         0.0947 
    112 H112       24.9447    0.3319  -10.7132 H         1 UNK         0.0806 
    113 H113       23.9564   -0.0735   -9.3196 H         1 UNK         0.0806 
    114 H114       25.7148   -0.1498   -9.2092 H         1 UNK         0.0806 
    115 H115       26.8820    2.7737   -7.7927 H         1 UNK         0.3000 
    116 H116       28.8500    3.7105   -8.0011 H         1 UNK         0.0850 
    117 H117       29.2280    5.4850   -9.6653 H         1 UNK         0.0810 
    118 H118       27.5873    5.6002   -9.0511 H         1 UNK         0.0810 
    119 H119       27.8885    4.9165  -10.6488 H         1 UNK         0.0810 
    120 H120       28.7610    1.0483   -8.6591 H         1 UNK         0.3040 
    121 H121       30.3991    0.4809  -11.0005 H         1 UNK         0.0766 
    122 H122       28.8039   -1.1944  -10.0178 H         1 UNK         0.0812 
    123 H123       29.7385   -1.2057   -8.5251 H         1 UNK         0.0812 
    124 H124       30.4494   -1.8124  -10.0122 H         1 UNK         0.0812 
    125 H125       32.5858   -0.3064  -10.9260 H         1 UNK         0.3205 
    126 H126       34.3428    1.1082   -9.0987 H         1 UNK         0.0754 
    127 H127       36.1423    0.0282  -10.4422 H         1 UNK         0.0769 
    128 H128       34.9530    0.7942  -11.4817 H         1 UNK         0.0769 
    129 H129       34.9546   -0.9588  -11.2812 H         1 UNK         0.0769 
    130 H130       33.2847   -2.2603   -9.5024 H         1 UNK         0.2981 
    131 H131       33.4845   -4.1175   -8.3710 H         1 UNK         0.0541 
    132 H132       35.2414   -4.8136   -5.9998 H         1 UNK         0.3459 
    133 H133       36.8174   -4.9535   -6.7337 H         1 UNK         0.3459 
    134 H134       33.3849   -4.1208   -5.8900 H         1 UNK         0.0612 
    135 H135       33.8522   -2.4402   -5.8369 H         1 UNK         0.0612 
    136 H136       32.4210   -0.5496   -6.1205 H         1 UNK         0.0624 
    137 H137       30.6813   -0.5698   -6.2659 H         1 UNK         0.0624 
@<TRIPOS>BOND
     1    1    2 1    
     2    1   72 1    
     3    1   73 1    
     4    1   74 1    
     5    2    3 2    
     6    2    4 am   BACKBONE|DICT|INTERRES
     7    4    5 1    
     8    4   75 1    
     9    5    6 1    
    10    5   35 1    
    11    5   76 1    
    12    6    7 1    
    13    6   77 1    
    14    6   78 1    
    15    7    8 1    
    16    8    9 1    
    17    8   79 1    
    18    8   80 1    
    19    9   10 ar   
    20    9   14 ar   
    21   10   11 ar   
    22   10   81 1    
    23   11   12 ar   
    24   11   71 1    
    25   12   13 ar   
    26   12   82 1    
    27   13   14 ar   
    28   13   15 1    
    29   14   83 1    
    30   15   16 1    
    31   15   84 1    
    32   15   85 1    
    33   16   17 1    
    34   17   18 1    
    35   17   86 1    
    36   17   87 1    
    37   18   19 1    
    38   18   37 1    
    39   18   88 1    
    40   19   20 am   BACKBONE|DICT|INTERRES
    41   19   89 1    
    42   20   21 2    
    43   20   22 1    
    44   22   23 1    
    45   22   24 1    
    46   22   90 1    
    47   23   91 1    
    48   23   92 1    
    49   23   93 1    
    50   24   25 am   BACKBONE|DICT|INTERRES
    51   24   94 1    
    52   25   26 2    
    53   25   27 1    
    54   27   28 1    
    55   27   29 1    
    56   27   95 1    
    57   28   96 1    
    58   28   97 1    
    59   28   98 1    
    60   29   30 am   BACKBONE|DICT|INTERRES
    61   29   99 1    
    62   30   31 2    
    63   30   32 1    
    64   32   33 1    
    65   32   34 1    
    66   32  100 1    
    67   33  101 1    
    68   33  102 1    
    69   33  103 1    
    70   34   35 am   BACKBONE|DICT|INTERRES
    71   34  104 1    
    72   35   36 2    
    73   37   38 2    
    74   37   39 am   BACKBONE|DICT|INTERRES
    75   39   40 1    
    76   39  105 1    
    77   40   41 1    
    78   40   42 1    
    79   40  106 1    
    80   41  107 1    
    81   41  108 1    
    82   41  109 1    
    83   42   43 2    
    84   42   44 am   BACKBONE|DICT|INTERRES
    85   44   45 1    
    86   44  110 1    
    87   45   46 1    
    88   45   47 1    
    89   45  111 1    
    90   46  112 1    
    91   46  113 1    
    92   46  114 1    
    93   47   48 2    
    94   47   49 am   BACKBONE|DICT|INTERRES
    95   49   50 1    
    96   49  115 1    
    97   50   51 1    
    98   50   52 1    
    99   50  116 1    
   100   51  117 1    
   101   51  118 1    
   102   51  119 1    
   103   52   53 2    
   104   52   54 am   BACKBONE|DICT|INTERRES
   105   54   55 1    
   106   54  120 1    
   107   55   56 1    
   108   55   57 1    
   109   55  121 1    
   110   56  122 1    
   111   56  123 1    
   112   56  124 1    
   113   57   58 2    
   114   57   59 am   BACKBONE|DICT|INTERRES
   115   59   60 1    
   116   59  125 1    
   117   60   61 1    
   118   60   62 1    
   119   60  126 1    
   120   61  127 1    
   121   61  128 1    
   122   61  129 1    
   123   62   63 2    
   124   62   64 am   BACKBONE|DICT|INTERRES
   125   64   65 1    
   126   64  130 1    
   127   65   66 1    
   128   65   69 1    
   129   65  131 1    
   130   66   67 am   BACKBONE|DICT|INTERRES
   131   66   68 2    
   132   67  132 1    
   133   67  133 1    
   134   69   70 1    
   135   69  134 1    
   136   69  135 1    
   137   70   71 1    
   138   71  136 1    
   139   71  137 1    
@<TRIPOS>SUBSTRUCTURE
     1 UNK         1 GROUP             0       ****    0 ROOT    
