@<TRIPOS>MOLECULE
3R137
137   139    1
SMALL
USER_CHARGES


@<TRIPOS>ATOM
      1 CA         23.7316   -4.1778   -7.4343 C.3       0 UNK        -0.2020 
      2 C          24.0557   -4.3941   -5.9632 C.2       0 UNK         0.4855 
      3 O          23.1749   -4.2540   -5.1140 O.2       0 UNK        -0.5197 
      4 N          25.3084   -4.7541   -5.6591 N.am      1 UNK        -0.4892 
      5 CA         25.7802   -5.0956   -4.3142 C.3       1 UNK         0.0835 
      6 C6         27.0919   -5.9209   -4.3663 C.3       12 UNK        -0.0855 
      7 S7         28.4999   -5.0585   -5.1545 S.3       12 UNK        -0.2931 
      8 C8         29.6927   -4.9101   -3.7823 C.3       12 UNK         0.0378 
      9 C9         30.1418   -3.4695   -3.5998 C.ar      12 UNK        -0.0802 
     10 C10        31.0984   -2.9227   -4.4589 C.ar      12 UNK        -0.0944 
     11 C11        31.5121   -1.5968   -4.3080 C.ar      12 UNK        -0.0787 
     12 C12        30.9734   -0.8193   -3.2793 C.ar      12 UNK        -0.0862 
     13 C13        30.0047   -1.3510   -2.4208 C.ar      12 UNK        -0.0733 
     14 C14        29.6007   -2.6807   -2.5802 C.ar      12 UNK        -0.0832 
     15 C15        29.3697   -0.4782   -1.3462 C.3       12 UNK         0.0240 
     16 S16        27.7296    0.1430   -1.8529 S.3       12 UNK        -0.2522 
     17 C17        28.1382    1.1122   -3.3421 C.3       12 UNK        -0.0967 
     18 CA         27.9046    0.2880   -4.6405 C.3       5 UNK         0.0660 
     19 N          26.4862   -0.0047   -4.8768 N.am      5 UNK        -0.4015 
     20 C          25.5566    0.8467   -5.3407 C.2       4 UNK         0.4946 
     21 O          25.7807    2.0180   -5.6508 O.2       4 UNK        -0.5353 
     22 CA         24.1297    0.2987   -5.4852 C.3       4 UNK         0.0277 
     23 CB         24.0219   -0.6086   -6.7188 C.3       4 UNK        -0.1981 
     24 N          23.7094   -0.4394   -4.2944 N.am      4 UNK        -0.4209 
     25 C          23.3462    0.1385   -3.1387 C.2       3 UNK         0.4942 
     26 O          23.2279    1.3535   -2.9802 O.2       3 UNK        -0.5208 
     27 CA         23.1221   -0.8007   -1.9506 C.3       3 UNK         0.0250 
     28 CB         21.8122   -1.5981   -2.0923 C.3       3 UNK        -0.1990 
     29 N          24.2695   -1.6932   -1.8504 N.am      3 UNK        -0.4232 
     30 C          24.6863   -2.3614   -0.7760 C.2       2 UNK         0.4993 
     31 O          24.0996   -2.3602    0.3077 O.2       2 UNK        -0.5286 
     32 CA         25.9833   -3.1726   -0.9702 C.3       2 UNK         0.0209 
     33 CB         26.4265   -3.9066    0.3089 C.3       2 UNK        -0.1931 
     34 N          25.8949   -4.1421   -2.0687 N.am      2 UNK        -0.4546 
     35 C          25.8876   -3.8687   -3.3826 C.2       1 UNK         0.5154 
     36 O          25.9538   -2.7228   -3.8475 O.2       1 UNK        -0.5181 
     37 C          28.5677    0.8937   -5.8959 C.2       5 UNK         0.5014 
     38 O          28.7241    0.1823   -6.8889 O.2       5 UNK        -0.5248 
     39 N          28.8848    2.1974   -5.8612 N.am      6 UNK        -0.4434 
     40 CA         29.4616    2.9658   -6.9688 C.3       6 UNK         0.0363 
     41 CB         29.7233    4.4071   -6.5048 C.3       6 UNK        -0.1936 
     42 C          28.6186    2.9607   -8.2584 C.2       6 UNK         0.5081 
     43 O          29.1844    3.1115   -9.3411 O.2       6 UNK        -0.5248 
     44 N          27.2961    2.7697   -8.1343 N.am      7 UNK        -0.4718 
     45 CA         26.3853    2.6097   -9.2701 C.3       7 UNK         0.0273 
     46 CB         24.9461    2.9155   -8.8247 C.3       7 UNK        -0.1935 
     47 C          26.4758    1.2199   -9.9292 C.2       7 UNK         0.5018 
     48 O          26.0733    1.0921  -11.0862 O.2       7 UNK        -0.5186 
     49 N          26.9968    0.2129   -9.2100 N.am      8 UNK        -0.4240 
     50 CA         27.2955   -1.1121   -9.7564 C.3       8 UNK         0.0235 
     51 CB         27.1650   -2.1894   -8.6653 C.3       8 UNK        -0.2000 
     52 C          28.6944   -1.1212  -10.3882 C.2       8 UNK         0.4941 
     53 O          28.8309   -1.5366  -11.5399 O.2       8 UNK        -0.5273 
     54 N          29.6973   -0.6344   -9.6460 N.am      9 UNK        -0.4262 
     55 CA         31.0724   -0.4567  -10.1068 C.3       9 UNK         0.0264 
     56 CB         31.8167   -1.8056  -10.1309 C.3       9 UNK        -0.1955 
     57 C          31.7722    0.5213   -9.1633 C.2       9 UNK         0.5031 
     58 O          31.6311    0.3860   -7.9490 O.2       9 UNK        -0.5390 
     59 N          32.5482    1.4628   -9.7104 N.am      10 UNK        -0.4204 
     60 CA         33.3042    2.4590   -8.9450 C.3       10 UNK         0.0237 
     61 CB         33.5377    3.6971   -9.8313 C.3       10 UNK        -0.1985 
     62 C          34.6136    1.8688   -8.3838 C.2       10 UNK         0.4970 
     63 O          35.6997    2.2858   -8.7920 O.2       10 UNK        -0.4914 
     64 N          34.4873    0.8825   -7.4871 N.am      11 UNK        -0.4285 
     65 CA         35.6095    0.2109   -6.8150 C.3       11 UNK         0.1007 
     66 C          36.3952    1.1253   -5.8298 C.2       11 UNK         0.5703 
     67 N          37.6216    0.7529   -5.4873 N.am      11 UNK        -0.7361 
     68 O          35.9038    2.1502   -5.3587 O.2       11 UNK        -0.4986 
     69 C69        35.1802   -1.1484   -6.1943 C.3       12 UNK        -0.0947 
     70 S70        34.2051   -1.0639   -4.6491 S.3       12 UNK        -0.2240 
     71 C71        32.5067   -0.9968   -5.2866 C.3       12 UNK         0.0194 
     72 H72        24.6329   -4.1053   -8.0447 H         1 UNK         0.0906 
     73 H73        23.1360   -5.0120   -7.8074 H         1 UNK         0.0906 
     74 H74        23.1514   -3.2651   -7.5706 H         1 UNK         0.0906 
     75 H75        26.0116   -4.8045   -6.3828 H         1 UNK         0.3140 
     76 H76        25.0155   -5.7423   -3.8768 H         1 UNK         0.1085 
     77 H77        27.3625   -6.2695   -3.3688 H         1 UNK         0.0836 
     78 H78        26.9136   -6.8337   -4.9372 H         1 UNK         0.0836 
     79 H79        29.2736   -5.2877   -2.8492 H         1 UNK         0.0731 
     80 H80        30.5575   -5.5394   -3.9979 H         1 UNK         0.0731 
     81 H81        31.5081   -3.5268   -5.2570 H         1 UNK         0.1312 
     82 H82        31.2914    0.2081   -3.1666 H         1 UNK         0.1406 
     83 H83        28.8540   -3.0981   -1.9208 H         1 UNK         0.1631 
     84 H84        30.0167    0.3659   -1.1023 H         1 UNK         0.0717 
     85 H85        29.2602   -1.0534   -0.4257 H         1 UNK         0.0717 
     86 H86        27.5235    2.0141   -3.3384 H         1 UNK         0.0934 
     87 H87        29.1730    1.4475   -3.2582 H         1 UNK         0.0934 
     88 H88        28.3787   -0.6861   -4.5192 H         1 UNK         0.0739 
     89 H89        26.2132   -0.9581   -4.6560 H         1 UNK         0.3093 
     90 H90        23.4571    1.1476   -5.6278 H         1 UNK         0.0818 
     91 H91        22.9920   -0.9240   -6.8855 H         1 UNK         0.0819 
     92 H92        24.3531   -0.0957   -7.6221 H         1 UNK         0.0819 
     93 H93        24.6373   -1.5004   -6.6083 H         1 UNK         0.0819 
     94 H94        23.7477   -1.4482   -4.3476 H         1 UNK         0.3041 
     95 H95        23.0717   -0.1919   -1.0452 H         1 UNK         0.0784 
     96 H96        20.9600   -0.9290   -2.2172 H         1 UNK         0.0793 
     97 H97        21.8348   -2.2672   -2.9536 H         1 UNK         0.0793 
     98 H98        21.6202   -2.2037   -1.2064 H         1 UNK         0.0793 
     99 H99        24.8519   -1.7748   -2.6800 H         1 UNK         0.3024 
    100 H100       26.7602   -2.4502   -1.2177 H         1 UNK         0.1171 
    101 H101       26.5534   -3.2072    1.1365 H         1 UNK         0.0786 
    102 H102       27.3823   -4.4115    0.1670 H         1 UNK         0.0786 
    103 H103       25.6943   -4.6523    0.6210 H         1 UNK         0.0786 
    104 H104       25.7993   -5.1065   -1.7841 H         1 UNK         0.2977 
    105 H105       28.6603    2.7206   -5.0281 H         1 UNK         0.3127 
    106 H106       30.4225    2.5125   -7.2090 H         1 UNK         0.0770 
    107 H107       28.8003    4.9125   -6.2179 H         1 UNK         0.0814 
    108 H108       30.1827    4.9947   -7.3012 H         1 UNK         0.0814 
    109 H109       30.4033    4.4343   -5.6532 H         1 UNK         0.0814 
    110 H110       26.8986    2.6421   -7.2071 H         1 UNK         0.2983 
    111 H111       26.6584    3.3422  -10.0332 H         1 UNK         0.0947 
    112 H112       24.2549    2.8474   -9.6659 H         1 UNK         0.0806 
    113 H113       24.8631    3.9239   -8.4192 H         1 UNK         0.0806 
    114 H114       24.5982    2.2203   -8.0622 H         1 UNK         0.0806 
    115 H115       27.3785    0.4115   -8.2902 H         1 UNK         0.3000 
    116 H116       26.5717   -1.3509  -10.5390 H         1 UNK         0.0850 
    117 H117       27.3461   -3.1820   -9.0795 H         1 UNK         0.0810 
    118 H118       27.8745   -2.0477   -7.8502 H         1 UNK         0.0810 
    119 H119       26.1639   -2.1956   -8.2392 H         1 UNK         0.0810 
    120 H120       29.5175   -0.3149   -8.6951 H         1 UNK         0.3040 
    121 H121       31.0554   -0.0305  -11.1122 H         1 UNK         0.0766 
    122 H122       31.8234   -2.2757   -9.1465 H         1 UNK         0.0812 
    123 H123       32.8551   -1.6743  -10.4376 H         1 UNK         0.0812 
    124 H124       31.3595   -2.5040  -10.8318 H         1 UNK         0.0812 
    125 H125       32.6545    1.4892  -10.7146 H         1 UNK         0.3205 
    126 H126       32.7061    2.7812   -8.0899 H         1 UNK         0.0754 
    127 H127       34.0798    4.4711   -9.2862 H         1 UNK         0.0769 
    128 H128       32.5926    4.1339  -10.1553 H         1 UNK         0.0769 
    129 H129       34.1194    3.4558  -10.7220 H         1 UNK         0.0769 
    130 H130       33.5517    0.5880   -7.2313 H         1 UNK         0.2981 
    131 H131       36.3161   -0.0321   -7.6114 H         1 UNK         0.0541 
    132 H132       38.0341   -0.0895   -5.8568 H         1 UNK         0.3459 
    133 H133       38.1445    1.3255   -4.8433 H         1 UNK         0.3459 
    134 H134       36.0732   -1.7328   -5.9670 H         1 UNK         0.0612 
    135 H135       34.6393   -1.7421   -6.9327 H         1 UNK         0.0612 
    136 H136       32.2471    0.0445   -5.4792 H         1 UNK         0.0624 
    137 H137       32.4401   -1.5194   -6.2418 H         1 UNK         0.0624 
@<TRIPOS>BOND
     1    1    2 1    
     2    1   72 1    
     3    1   73 1    
     4    1   74 1    
     5    2    3 2    
     6    2    4 am   BACKBONE|DICT|INTERRES
     7    4    5 1    
     8    4   75 1    
     9    5    6 1    
    10    5   35 1    
    11    5   76 1    
    12    6    7 1    
    13    6   77 1    
    14    6   78 1    
    15    7    8 1    
    16    8    9 1    
    17    8   79 1    
    18    8   80 1    
    19    9   10 ar   
    20    9   14 ar   
    21   10   11 ar   
    22   10   81 1    
    23   11   12 ar   
    24   11   71 1    
    25   12   13 ar   
    26   12   82 1    
    27   13   14 ar   
    28   13   15 1    
    29   14   83 1    
    30   15   16 1    
    31   15   84 1    
    32   15   85 1    
    33   16   17 1    
    34   17   18 1    
    35   17   86 1    
    36   17   87 1    
    37   18   19 1    
    38   18   37 1    
    39   18   88 1    
    40   19   20 am   BACKBONE|DICT|INTERRES
    41   19   89 1    
    42   20   21 2    
    43   20   22 1    
    44   22   23 1    
    45   22   24 1    
    46   22   90 1    
    47   23   91 1    
    48   23   92 1    
    49   23   93 1    
    50   24   25 am   BACKBONE|DICT|INTERRES
    51   24   94 1    
    52   25   26 2    
    53   25   27 1    
    54   27   28 1    
    55   27   29 1    
    56   27   95 1    
    57   28   96 1    
    58   28   97 1    
    59   28   98 1    
    60   29   30 am   BACKBONE|DICT|INTERRES
    61   29   99 1    
    62   30   31 2    
    63   30   32 1    
    64   32   33 1    
    65   32   34 1    
    66   32  100 1    
    67   33  101 1    
    68   33  102 1    
    69   33  103 1    
    70   34   35 am   BACKBONE|DICT|INTERRES
    71   34  104 1    
    72   35   36 2    
    73   37   38 2    
    74   37   39 am   BACKBONE|DICT|INTERRES
    75   39   40 1    
    76   39  105 1    
    77   40   41 1    
    78   40   42 1    
    79   40  106 1    
    80   41  107 1    
    81   41  108 1    
    82   41  109 1    
    83   42   43 2    
    84   42   44 am   BACKBONE|DICT|INTERRES
    85   44   45 1    
    86   44  110 1    
    87   45   46 1    
    88   45   47 1    
    89   45  111 1    
    90   46  112 1    
    91   46  113 1    
    92   46  114 1    
    93   47   48 2    
    94   47   49 am   BACKBONE|DICT|INTERRES
    95   49   50 1    
    96   49  115 1    
    97   50   51 1    
    98   50   52 1    
    99   50  116 1    
   100   51  117 1    
   101   51  118 1    
   102   51  119 1    
   103   52   53 2    
   104   52   54 am   BACKBONE|DICT|INTERRES
   105   54   55 1    
   106   54  120 1    
   107   55   56 1    
   108   55   57 1    
   109   55  121 1    
   110   56  122 1    
   111   56  123 1    
   112   56  124 1    
   113   57   58 2    
   114   57   59 am   BACKBONE|DICT|INTERRES
   115   59   60 1    
   116   59  125 1    
   117   60   61 1    
   118   60   62 1    
   119   60  126 1    
   120   61  127 1    
   121   61  128 1    
   122   61  129 1    
   123   62   63 2    
   124   62   64 am   BACKBONE|DICT|INTERRES
   125   64   65 1    
   126   64  130 1    
   127   65   66 1    
   128   65   69 1    
   129   65  131 1    
   130   66   67 am   BACKBONE|DICT|INTERRES
   131   66   68 2    
   132   67  132 1    
   133   67  133 1    
   134   69   70 1    
   135   69  134 1    
   136   69  135 1    
   137   70   71 1    
   138   71  136 1    
   139   71  137 1    
@<TRIPOS>SUBSTRUCTURE
     1 UNK         1 GROUP             0       ****    0 ROOT    
