@<TRIPOS>MOLECULE
3R137
137   139    1
SMALL
USER_CHARGES


@<TRIPOS>ATOM
      1 CA         24.8256   -6.4181   -3.2728 C.3       0 UNK        -0.2020 
      2 C          25.1042   -5.3813   -2.1958 C.2       0 UNK         0.4855 
      3 O          24.1814   -4.7027   -1.7432 O.2       0 UNK        -0.5197 
      4 N          26.3733   -5.2437   -1.7919 N.am      1 UNK        -0.4892 
      5 CA         26.8736   -4.2586   -0.8265 C.3       1 UNK         0.0835 
      6 C6         28.3740   -4.4795   -0.4878 C.3       12 UNK        -0.0855 
      7 S7         29.4409   -4.8772   -1.9235 S.3       12 UNK        -0.2931 
      8 C8         31.0337   -4.1525   -1.4300 C.3       12 UNK         0.0378 
      9 C9         31.2840   -2.8041   -2.0915 C.ar      12 UNK        -0.0802 
     10 C10        32.0290   -2.7348   -3.2728 C.ar      12 UNK        -0.0944 
     11 C11        32.3466   -1.5003   -3.8478 C.ar      12 UNK        -0.0787 
     12 C12        31.9036   -0.3259   -3.2283 C.ar      12 UNK        -0.0862 
     13 C13        31.1320   -0.3808   -2.0626 C.ar      12 UNK        -0.0733 
     14 C14        30.8245   -1.6243   -1.4996 C.ar      12 UNK        -0.0832 
     15 C15        30.6665    0.9024   -1.3831 C.3       12 UNK         0.0240 
     16 S16        29.6400    1.9551   -2.4615 S.3       12 UNK        -0.2522 
     17 C17        28.2437    0.8513   -2.8571 C.3       12 UNK        -0.0967 
     18 CA         28.2027    0.4846   -4.3631 C.3       5 UNK         0.0660 
     19 N          27.6296   -0.8507   -4.5789 N.am      5 UNK        -0.4015 
     20 C          27.4658   -1.4637   -5.7617 C.2       4 UNK         0.4946 
     21 O          27.8016   -0.9777   -6.8392 O.2       4 UNK        -0.5353 
     22 CA         26.7493   -2.8212   -5.7476 C.3       4 UNK         0.0277 
     23 CB         27.6895   -3.9453   -5.2856 C.3       4 UNK        -0.1981 
     24 N          25.5667   -2.7617   -4.8881 N.am      4 UNK        -0.4209 
     25 C          24.3858   -2.2571   -5.2772 C.2       3 UNK         0.4942 
     26 O          24.1310   -1.9323   -6.4367 O.2       3 UNK        -0.5208 
     27 CA         23.3082   -2.0531   -4.1971 C.3       3 UNK         0.0250 
     28 CB         22.2987   -3.2120   -4.2057 C.3       3 UNK        -0.1990 
     29 N          23.8656   -1.8885   -2.8512 N.am      3 UNK        -0.4232 
     30 C          24.5232   -0.7911   -2.4448 C.2       2 UNK         0.4993 
     31 O          24.7034    0.1969   -3.1561 O.2       2 UNK        -0.5286 
     32 CA         25.1383   -0.8186   -1.0331 C.3       2 UNK         0.0209 
     33 CB         24.1214   -0.3228    0.0066 C.3       2 UNK        -0.1931 
     34 N          25.6420   -2.1385   -0.6375 N.am      2 UNK        -0.4546 
     35 C          26.5806   -2.8236   -1.3054 C.2       1 UNK         0.5154 
     36 O          27.1469   -2.3866   -2.3073 O.2       1 UNK        -0.5181 
     37 C          27.4985    1.5862   -5.1871 C.2       5 UNK         0.5014 
     38 O          28.1633    2.4927   -5.6903 O.2       5 UNK        -0.5248 
     39 N          26.1744    1.4570   -5.3624 N.am      6 UNK        -0.4434 
     40 CA         25.3288    2.2997   -6.2141 C.3       6 UNK         0.0363 
     41 CB         23.8700    1.8315   -6.0884 C.3       6 UNK        -0.1936 
     42 C          25.7453    2.3606   -7.6994 C.2       6 UNK         0.5081 
     43 O          25.3558    3.3085   -8.3819 O.2       6 UNK        -0.5248 
     44 N          26.5404    1.3906   -8.1781 N.am      7 UNK        -0.4718 
     45 CA         27.1494    1.4005   -9.5127 C.3       7 UNK         0.0273 
     46 CB         27.4790   -0.0420   -9.9280 C.3       7 UNK        -0.1935 
     47 C          28.3958    2.3066   -9.6110 C.2       7 UNK         0.5018 
     48 O          28.9683    2.4106  -10.6981 O.2       7 UNK        -0.5186 
     49 N          28.7996    2.9450   -8.4999 N.am      8 UNK        -0.4240 
     50 CA         29.9008    3.9032   -8.3718 C.3       8 UNK         0.0235 
     51 CB         29.5614    5.2219   -9.1046 C.3       8 UNK        -0.2000 
     52 C          31.2381    3.2704   -8.7874 C.2       8 UNK         0.4941 
     53 O          31.6879    2.3404   -8.1221 O.2       8 UNK        -0.5273 
     54 N          31.8363    3.7449   -9.8877 N.am      9 UNK        -0.4262 
     55 CA         33.0794    3.2162  -10.4568 C.3       9 UNK         0.0264 
     56 CB         33.5467    4.1462  -11.5886 C.3       9 UNK        -0.1955 
     57 C          32.9792    1.7626  -10.9621 C.2       9 UNK         0.5031 
     58 O          34.0160    1.1128  -11.1038 O.2       9 UNK        -0.5390 
     59 N          31.7575    1.2782  -11.2271 N.am      10 UNK        -0.4204 
     60 CA         31.4822   -0.0701  -11.7241 C.3       10 UNK         0.0237 
     61 CB         30.4341    0.0247  -12.8490 C.3       10 UNK        -0.1985 
     62 C          31.0536   -1.0512  -10.6141 C.2       10 UNK         0.4970 
     63 O          30.5240   -2.1135  -10.9455 O.2       10 UNK        -0.4914 
     64 N          31.2674   -0.7099   -9.3328 N.am      11 UNK        -0.4285 
     65 CA         30.9895   -1.5981   -8.1900 C.3       11 UNK         0.1007 
     66 C          31.8334   -2.9068   -8.1790 C.2       11 UNK         0.5703 
     67 N          31.3677   -3.9368   -7.4845 N.am      11 UNK        -0.7361 
     68 O          32.9131   -2.9915   -8.7624 O.2       11 UNK        -0.4986 
     69 C69        31.0471   -0.8461   -6.8332 C.3       12 UNK        -0.0947 
     70 S70        32.6988   -0.2349   -6.3494 S.3       12 UNK        -0.2240 
     71 C71        33.2189   -1.4602   -5.1012 C.3       12 UNK         0.0194 
     72 H72        25.6914   -7.0535   -3.4587 H         1 UNK         0.0906 
     73 H73        23.9957   -7.0575   -2.9730 H         1 UNK         0.0906 
     74 H74        24.5583   -5.9264   -4.2076 H         1 UNK         0.0906 
     75 H75        27.0986   -5.7999   -2.2242 H         1 UNK         0.3140 
     76 H76        26.3129   -4.4139    0.0979 H         1 UNK         0.1085 
     77 H77        28.4588   -5.3160    0.2076 H         1 UNK         0.0836 
     78 H78        28.7761   -3.6186    0.0495 H         1 UNK         0.0836 
     79 H79        31.8263   -4.8495   -1.7067 H         1 UNK         0.0731 
     80 H80        31.0911   -4.0598   -0.3444 H         1 UNK         0.0731 
     81 H81        32.3866   -3.6472   -3.7305 H         1 UNK         0.1312 
     82 H82        32.1578    0.6358   -3.6525 H         1 UNK         0.1406 
     83 H83        30.2467   -1.6757   -0.5872 H         1 UNK         0.1631 
     84 H84        31.5424    1.4718   -1.0696 H         1 UNK         0.0717 
     85 H85        30.1046    0.6811   -0.4743 H         1 UNK         0.0717 
     86 H86        28.3419   -0.0480   -2.2488 H         1 UNK         0.0934 
     87 H87        27.3133    1.3201   -2.5306 H         1 UNK         0.0934 
     88 H88        29.2283    0.4171   -4.7312 H         1 UNK         0.0739 
     89 H89        27.3779   -1.3678   -3.7373 H         1 UNK         0.3093 
     90 H90        26.4361   -3.0484   -6.7693 H         1 UNK         0.0818 
     91 H91        28.5272   -4.0546   -5.9740 H         1 UNK         0.0819 
     92 H92        28.1081   -3.7502   -4.2991 H         1 UNK         0.0819 
     93 H93        27.1744   -4.9050   -5.2473 H         1 UNK         0.0819 
     94 H94        25.7134   -2.9536   -3.9061 H         1 UNK         0.3041 
     95 H95        22.7680   -1.1378   -4.4499 H         1 UNK         0.0784 
     96 H96        21.8236   -3.3057   -5.1832 H         1 UNK         0.0793 
     97 H97        22.7727   -4.1675   -3.9836 H         1 UNK         0.0793 
     98 H98        21.5056   -3.0532   -3.4748 H         1 UNK         0.0793 
     99 H99        23.8049   -2.6884   -2.2288 H         1 UNK         0.3024 
    100 H100       25.9857   -0.1306   -1.0350 H         1 UNK         0.1171 
    101 H101       24.5713   -0.2442    0.9965 H         1 UNK         0.0786 
    102 H102       23.7469    0.6678   -0.2561 H         1 UNK         0.0786 
    103 H103       23.2600   -0.9880    0.0798 H         1 UNK         0.0786 
    104 H104       25.1867   -2.5772    0.1505 H         1 UNK         0.2977 
    105 H105       25.6947    0.7390   -4.8277 H         1 UNK         0.3127 
    106 H106       25.3958    3.3170   -5.8236 H         1 UNK         0.0770 
    107 H107       23.7463    0.8066   -6.4394 H         1 UNK         0.0814 
    108 H108       23.2037    2.4614   -6.6793 H         1 UNK         0.0814 
    109 H109       23.5244    1.8771   -5.0554 H         1 UNK         0.0814 
    110 H110       26.8368    0.6395   -7.5604 H         1 UNK         0.2983 
    111 H111       26.4176    1.7913  -10.2229 H         1 UNK         0.0947 
    112 H112       28.2985   -0.4512   -9.3389 H         1 UNK         0.0806 
    113 H113       27.7766   -0.0899  -10.9751 H         1 UNK         0.0806 
    114 H114       26.6185   -0.7001   -9.8075 H         1 UNK         0.0806 
    115 H115       28.3286    2.7270   -7.6258 H         1 UNK         0.3000 
    116 H116       29.9895    4.1283   -7.3078 H         1 UNK         0.0850 
    117 H117       30.3526    5.9615   -8.9742 H         1 UNK         0.0810 
    118 H118       28.6481    5.6620   -8.7037 H         1 UNK         0.0810 
    119 H119       29.4093    5.0783  -10.1749 H         1 UNK         0.0810 
    120 H120       31.3849    4.4944  -10.3920 H         1 UNK         0.3040 
    121 H121       33.8351    3.2300   -9.6685 H         1 UNK         0.0766 
    122 H122       33.7109    5.1616  -11.2275 H         1 UNK         0.0812 
    123 H123       32.8202    4.1899  -12.4011 H         1 UNK         0.0812 
    124 H124       34.4900    3.8003  -12.0140 H         1 UNK         0.0812 
    125 H125       30.9455    1.8641  -11.0536 H         1 UNK         0.3205 
    126 H126       32.3880   -0.4918  -12.1645 H         1 UNK         0.0754 
    127 H127       30.2283   -0.9533  -13.2859 H         1 UNK         0.0769 
    128 H128       30.7827    0.6677  -13.6574 H         1 UNK         0.0769 
    129 H129       29.4886    0.4288  -12.4893 H         1 UNK         0.0769 
    130 H130       31.7088    0.1732   -9.1123 H         1 UNK         0.2981 
    131 H131       29.9539   -1.9185   -8.3179 H         1 UNK         0.0541 
    132 H132       31.9041   -4.7895   -7.4590 H         1 UNK         0.3459 
    133 H133       30.4915   -3.8813   -6.9929 H         1 UNK         0.3459 
    134 H134       30.3841    0.0194   -6.8773 H         1 UNK         0.0612 
    135 H135       30.6442   -1.4747   -6.0379 H         1 UNK         0.0612 
    136 H136       34.2409   -1.2288   -4.7995 H         1 UNK         0.0624 
    137 H137       33.2550   -2.4418   -5.5753 H         1 UNK         0.0624 
@<TRIPOS>BOND
     1    1    2 1    
     2    1   72 1    
     3    1   73 1    
     4    1   74 1    
     5    2    3 2    
     6    2    4 am   BACKBONE|DICT|INTERRES
     7    4    5 1    
     8    4   75 1    
     9    5    6 1    
    10    5   35 1    
    11    5   76 1    
    12    6    7 1    
    13    6   77 1    
    14    6   78 1    
    15    7    8 1    
    16    8    9 1    
    17    8   79 1    
    18    8   80 1    
    19    9   10 ar   
    20    9   14 ar   
    21   10   11 ar   
    22   10   81 1    
    23   11   12 ar   
    24   11   71 1    
    25   12   13 ar   
    26   12   82 1    
    27   13   14 ar   
    28   13   15 1    
    29   14   83 1    
    30   15   16 1    
    31   15   84 1    
    32   15   85 1    
    33   16   17 1    
    34   17   18 1    
    35   17   86 1    
    36   17   87 1    
    37   18   19 1    
    38   18   37 1    
    39   18   88 1    
    40   19   20 am   BACKBONE|DICT|INTERRES
    41   19   89 1    
    42   20   21 2    
    43   20   22 1    
    44   22   23 1    
    45   22   24 1    
    46   22   90 1    
    47   23   91 1    
    48   23   92 1    
    49   23   93 1    
    50   24   25 am   BACKBONE|DICT|INTERRES
    51   24   94 1    
    52   25   26 2    
    53   25   27 1    
    54   27   28 1    
    55   27   29 1    
    56   27   95 1    
    57   28   96 1    
    58   28   97 1    
    59   28   98 1    
    60   29   30 am   BACKBONE|DICT|INTERRES
    61   29   99 1    
    62   30   31 2    
    63   30   32 1    
    64   32   33 1    
    65   32   34 1    
    66   32  100 1    
    67   33  101 1    
    68   33  102 1    
    69   33  103 1    
    70   34   35 am   BACKBONE|DICT|INTERRES
    71   34  104 1    
    72   35   36 2    
    73   37   38 2    
    74   37   39 am   BACKBONE|DICT|INTERRES
    75   39   40 1    
    76   39  105 1    
    77   40   41 1    
    78   40   42 1    
    79   40  106 1    
    80   41  107 1    
    81   41  108 1    
    82   41  109 1    
    83   42   43 2    
    84   42   44 am   BACKBONE|DICT|INTERRES
    85   44   45 1    
    86   44  110 1    
    87   45   46 1    
    88   45   47 1    
    89   45  111 1    
    90   46  112 1    
    91   46  113 1    
    92   46  114 1    
    93   47   48 2    
    94   47   49 am   BACKBONE|DICT|INTERRES
    95   49   50 1    
    96   49  115 1    
    97   50   51 1    
    98   50   52 1    
    99   50  116 1    
   100   51  117 1    
   101   51  118 1    
   102   51  119 1    
   103   52   53 2    
   104   52   54 am   BACKBONE|DICT|INTERRES
   105   54   55 1    
   106   54  120 1    
   107   55   56 1    
   108   55   57 1    
   109   55  121 1    
   110   56  122 1    
   111   56  123 1    
   112   56  124 1    
   113   57   58 2    
   114   57   59 am   BACKBONE|DICT|INTERRES
   115   59   60 1    
   116   59  125 1    
   117   60   61 1    
   118   60   62 1    
   119   60  126 1    
   120   61  127 1    
   121   61  128 1    
   122   61  129 1    
   123   62   63 2    
   124   62   64 am   BACKBONE|DICT|INTERRES
   125   64   65 1    
   126   64  130 1    
   127   65   66 1    
   128   65   69 1    
   129   65  131 1    
   130   66   67 am   BACKBONE|DICT|INTERRES
   131   66   68 2    
   132   67  132 1    
   133   67  133 1    
   134   69   70 1    
   135   69  134 1    
   136   69  135 1    
   137   70   71 1    
   138   71  136 1    
   139   71  137 1    
@<TRIPOS>SUBSTRUCTURE
     1 UNK         1 GROUP             0       ****    0 ROOT    
