@<TRIPOS>MOLECULE
3R137
137   139    1
SMALL
USER_CHARGES


@<TRIPOS>ATOM
      1 CA         27.1213   -4.8785    1.5872 C.3       0 UNK        -0.2020 
      2 C          27.1960   -3.8386    0.4801 C.2       0 UNK         0.4855 
      3 O          27.2260   -4.2038   -0.6952 O.2       0 UNK        -0.5197 
      4 N          27.2214   -2.5496    0.8488 N.am      1 UNK        -0.4892 
      5 CA         27.3101   -1.3503   -0.0052 C.3       1 UNK         0.0835 
      6 C6         28.5773   -1.2921   -0.8982 C.3       12 UNK        -0.0855 
      7 S7         30.1284   -1.2845    0.0681 S.3       12 UNK        -0.2931 
      8 C8         30.7952   -2.9583   -0.2162 C.3       12 UNK         0.0378 
      9 C9         31.1373   -3.2022   -1.6790 C.ar      12 UNK        -0.0802 
     10 C10        32.2608   -2.5981   -2.2498 C.ar      12 UNK        -0.0944 
     11 C11        32.5621   -2.7993   -3.5994 C.ar      12 UNK        -0.0787 
     12 C12        31.7478   -3.6318   -4.3730 C.ar      12 UNK        -0.0862 
     13 C13        30.6049   -4.2201   -3.8202 C.ar      12 UNK        -0.0733 
     14 C14        30.3181   -4.0158   -2.4675 C.ar      12 UNK        -0.0832 
     15 C15        29.6504   -5.0466   -4.6783 C.3       12 UNK         0.0240 
     16 S16        29.1485   -4.2199   -6.2298 S.3       12 UNK        -0.2522 
     17 C17        28.8101   -2.5147   -5.6780 C.3       12 UNK        -0.0967 
     18 CA         28.0528   -1.7031   -6.7551 C.3       5 UNK         0.0660 
     19 N          26.6278   -2.0203   -6.7925 N.am      5 UNK        -0.4015 
     20 C          25.9552   -2.3953   -7.8890 C.2       4 UNK         0.4946 
     21 O          26.4877   -2.6701   -8.9648 O.2       4 UNK        -0.5353 
     22 CA         24.4174   -2.4597   -7.7919 C.3       4 UNK         0.0277 
     23 CB         23.9539   -3.9152   -7.6169 C.3       4 UNK        -0.1981 
     24 N          23.8400   -1.6425   -6.7199 N.am      4 UNK        -0.4209 
     25 C          23.9959   -0.3186   -6.5737 C.2       3 UNK         0.4942 
     26 O          24.6172    0.3940   -7.3620 O.2       3 UNK        -0.5208 
     27 CA         23.4415    0.3045   -5.2807 C.3       3 UNK         0.0250 
     28 CB         22.0057    0.8051   -5.5008 C.3       3 UNK        -0.1990 
     29 N          23.4777   -0.5869   -4.1128 N.am      3 UNK        -0.4232 
     30 C          24.5671   -1.2013   -3.6275 C.2       2 UNK         0.4993 
     31 O          25.6833   -1.1440   -4.1538 O.2       2 UNK        -0.5286 
     32 CA         24.3534   -2.0848   -2.3895 C.3       2 UNK         0.0209 
     33 CB         24.0131   -3.5206   -2.8205 C.3       2 UNK        -0.1931 
     34 N          25.5340   -2.1221   -1.5271 N.am      2 UNK        -0.4546 
     35 C          26.0344   -1.0910   -0.8366 C.2       1 UNK         0.5154 
     36 O          25.5163    0.0267   -0.8143 O.2       1 UNK        -0.5181 
     37 C          28.2520   -0.1948   -6.5303 C.2       5 UNK         0.5014 
     38 O          29.0285    0.4184   -7.2652 O.2       5 UNK        -0.5248 
     39 N          27.5847    0.3673   -5.5113 N.am      6 UNK        -0.4434 
     40 CA         27.8175    1.7224   -5.0079 C.3       6 UNK         0.0363 
     41 CB         27.1306    1.8890   -3.6424 C.3       6 UNK        -0.1936 
     42 C          27.3809    2.8367   -5.9693 C.2       6 UNK         0.5081 
     43 O          28.1605    3.7561   -6.2171 O.2       6 UNK        -0.5248 
     44 N          26.1511    2.7451   -6.4927 N.am      7 UNK        -0.4718 
     45 CA         25.5887    3.7291   -7.4247 C.3       7 UNK         0.0273 
     46 CB         24.0529    3.7037   -7.3561 C.3       7 UNK        -0.1935 
     47 C          26.0797    3.4886   -8.8591 C.2       7 UNK         0.5018 
     48 O          26.2332    4.4469   -9.6167 O.2       7 UNK        -0.5186 
     49 N          26.3514    2.2183   -9.1903 N.am      8 UNK        -0.4240 
     50 CA         26.9864    1.7945  -10.4396 C.3       8 UNK         0.0235 
     51 CB         26.8769    0.2668  -10.5571 C.3       8 UNK        -0.2000 
     52 C          28.4612    2.2261  -10.5569 C.2       8 UNK         0.4941 
     53 O          28.9652    2.3103  -11.6772 O.2       8 UNK        -0.5273 
     54 N          29.1185    2.4686   -9.4104 N.am      9 UNK        -0.4262 
     55 CA         30.5433    2.7733   -9.2359 C.3       9 UNK         0.0264 
     56 CB         30.9008    4.1408   -9.8562 C.3       9 UNK        -0.1955 
     57 C          31.4331    1.6203   -9.7375 C.2       9 UNK         0.5031 
     58 O          32.3673    1.8432  -10.5103 O.2       9 UNK        -0.5390 
     59 N          31.0973    0.3966   -9.3063 N.am      10 UNK        -0.4204 
     60 CA         31.7365   -0.8457   -9.7525 C.3       10 UNK         0.0237 
     61 CB         30.8285   -2.0335   -9.3966 C.3       10 UNK        -0.1985 
     62 C          33.1456   -1.0717   -9.1767 C.2       10 UNK         0.4970 
     63 O          33.9107   -1.8413   -9.7597 O.2       10 UNK        -0.4914 
     64 N          33.4476   -0.4418   -8.0353 N.am      11 UNK        -0.4285 
     65 CA         34.7064   -0.5920   -7.2922 C.3       11 UNK         0.1007 
     66 C          35.9395   -0.0472   -8.0632 C.2       11 UNK         0.5703 
     67 N          37.0890   -0.6963   -7.9348 N.am      11 UNK        -0.7361 
     68 O          35.8744    0.9800   -8.7361 O.2       11 UNK        -0.4986 
     69 C69        34.6199    0.0436   -5.8792 C.3       12 UNK        -0.0947 
     70 S70        33.1517   -0.4921   -4.9410 S.3       12 UNK        -0.2240 
     71 C71        33.7276   -2.0678   -4.2412 C.3       12 UNK         0.0194 
     72 H72        27.9822   -5.5442    1.5328 H         1 UNK         0.0906 
     73 H73        26.2188   -5.4790    1.4765 H         1 UNK         0.0906 
     74 H74        27.1071   -4.4229    2.5771 H         1 UNK         0.0906 
     75 H75        27.1700   -2.3414    1.8368 H         1 UNK         0.3140 
     76 H76        27.3760   -0.5123    0.6914 H         1 UNK         0.1085 
     77 H77        28.5780   -0.3762   -1.4908 H         1 UNK         0.0836 
     78 H78        28.5770   -2.1048   -1.6233 H         1 UNK         0.0836 
     79 H79        31.6952   -3.0839    0.3875 H         1 UNK         0.0731 
     80 H80        30.0842   -3.7011    0.1458 H         1 UNK         0.0731 
     81 H81        32.8811   -1.9457   -1.6502 H         1 UNK         0.1312 
     82 H82        31.9705   -3.7752   -5.4216 H         1 UNK         0.1406 
     83 H83        29.4381   -4.4694   -2.0317 H         1 UNK         0.1631 
     84 H84        28.7454   -5.2883   -4.1184 H         1 UNK         0.0717 
     85 H85        30.1249   -5.9977   -4.9223 H         1 UNK         0.0717 
     86 H86        28.2570   -2.5343   -4.7364 H         1 UNK         0.0934 
     87 H87        29.7737   -2.0507   -5.4570 H         1 UNK         0.0934 
     88 H88        28.5016   -1.9226   -7.7240 H         1 UNK         0.0739 
     89 H89        26.1070   -1.8221   -5.9444 H         1 UNK         0.3093 
     90 H90        24.0218   -2.0818   -8.7370 H         1 UNK         0.0818 
     91 H91        24.3434   -4.5475   -8.4163 H         1 UNK         0.0819 
     92 H92        24.2980   -4.3374   -6.6717 H         1 UNK         0.0819 
     93 H93        22.8670   -3.9939   -7.6465 H         1 UNK         0.0819 
     94 H94        23.3168   -2.1350   -6.0111 H         1 UNK         0.3041 
     95 H95        24.0654    1.1675   -5.0437 H         1 UNK         0.0784 
     96 H96        21.9519    1.4804   -6.3559 H         1 UNK         0.0793 
     97 H97        21.3151   -0.0172   -5.6925 H         1 UNK         0.0793 
     98 H98        21.6400    1.3565   -4.6344 H         1 UNK         0.0793 
     99 H99        22.6008   -0.7115   -3.6266 H         1 UNK         0.3024 
    100 H100       23.5249   -1.6792   -1.8046 H         1 UNK         0.1171 
    101 H101       24.8208   -3.9677   -3.4023 H         1 UNK         0.0786 
    102 H102       23.8307   -4.1607   -1.9570 H         1 UNK         0.0786 
    103 H103       23.1130   -3.5463   -3.4363 H         1 UNK         0.0786 
    104 H104       26.0462   -2.9996   -1.4721 H         1 UNK         0.2977 
    105 H105       26.9460   -0.2076   -4.9621 H         1 UNK         0.3127 
    106 H106       28.8935    1.8309   -4.8534 H         1 UNK         0.0770 
    107 H107       27.3154    2.8816   -3.2297 H         1 UNK         0.0814 
    108 H108       26.0502    1.7597   -3.7093 H         1 UNK         0.0814 
    109 H109       27.5041    1.1650   -2.9198 H         1 UNK         0.0814 
    110 H110       25.6038    1.9091   -6.3306 H         1 UNK         0.2983 
    111 H111       25.9195    4.7261   -7.1242 H         1 UNK         0.0947 
    112 H112       23.6408    2.7709   -7.7400 H         1 UNK         0.0806 
    113 H113       23.6282    4.5107   -7.9545 H         1 UNK         0.0806 
    114 H114       23.6963    3.8360   -6.3345 H         1 UNK         0.0806 
    115 H115       26.1132    1.4948   -8.5218 H         1 UNK         0.3000 
    116 H116       26.4394    2.2482  -11.2688 H         1 UNK         0.0850 
    117 H117       27.2754   -0.0819  -11.5107 H         1 UNK         0.0810 
    118 H118       25.8410   -0.0676  -10.4961 H         1 UNK         0.0810 
    119 H119       27.4385   -0.2356   -9.7685 H         1 UNK         0.0810 
    120 H120       28.6126    2.3111   -8.5482 H         1 UNK         0.3040 
    121 H121       30.7099    2.8457   -8.1598 H         1 UNK         0.0766 
    122 H122       30.8001    4.1347  -10.9418 H         1 UNK         0.0812 
    123 H123       31.9318    4.4133   -9.6281 H         1 UNK         0.0812 
    124 H124       30.2614    4.9317   -9.4642 H         1 UNK         0.0812 
    125 H125       30.3258    0.3177   -8.6457 H         1 UNK         0.3205 
    126 H126       31.8304   -0.8037  -10.8398 H         1 UNK         0.0754 
    127 H127       31.2277   -2.9643   -9.8017 H         1 UNK         0.0769 
    128 H128       29.8255   -1.9080   -9.8057 H         1 UNK         0.0769 
    129 H129       30.7450   -2.1623   -8.3168 H         1 UNK         0.0769 
    130 H130       32.7628    0.1742   -7.6256 H         1 UNK         0.2981 
    131 H131       34.8552   -1.6654   -7.1604 H         1 UNK         0.0541 
    132 H132       37.9039   -0.3470   -8.4147 H         1 UNK         0.3459 
    133 H133       37.1583   -1.5318   -7.3749 H         1 UNK         0.3459 
    134 H134       34.5796    1.1319   -5.9553 H         1 UNK         0.0612 
    135 H135       35.5135   -0.1879   -5.2965 H         1 UNK         0.0612 
    136 H136       34.1676   -2.6839   -5.0265 H         1 UNK         0.0624 
    137 H137       34.5146   -1.8786   -3.5096 H         1 UNK         0.0624 
@<TRIPOS>BOND
     1    1    2 1    
     2    1   72 1    
     3    1   73 1    
     4    1   74 1    
     5    2    3 2    
     6    2    4 am   BACKBONE|DICT|INTERRES
     7    4    5 1    
     8    4   75 1    
     9    5    6 1    
    10    5   35 1    
    11    5   76 1    
    12    6    7 1    
    13    6   77 1    
    14    6   78 1    
    15    7    8 1    
    16    8    9 1    
    17    8   79 1    
    18    8   80 1    
    19    9   10 ar   
    20    9   14 ar   
    21   10   11 ar   
    22   10   81 1    
    23   11   12 ar   
    24   11   71 1    
    25   12   13 ar   
    26   12   82 1    
    27   13   14 ar   
    28   13   15 1    
    29   14   83 1    
    30   15   16 1    
    31   15   84 1    
    32   15   85 1    
    33   16   17 1    
    34   17   18 1    
    35   17   86 1    
    36   17   87 1    
    37   18   19 1    
    38   18   37 1    
    39   18   88 1    
    40   19   20 am   BACKBONE|DICT|INTERRES
    41   19   89 1    
    42   20   21 2    
    43   20   22 1    
    44   22   23 1    
    45   22   24 1    
    46   22   90 1    
    47   23   91 1    
    48   23   92 1    
    49   23   93 1    
    50   24   25 am   BACKBONE|DICT|INTERRES
    51   24   94 1    
    52   25   26 2    
    53   25   27 1    
    54   27   28 1    
    55   27   29 1    
    56   27   95 1    
    57   28   96 1    
    58   28   97 1    
    59   28   98 1    
    60   29   30 am   BACKBONE|DICT|INTERRES
    61   29   99 1    
    62   30   31 2    
    63   30   32 1    
    64   32   33 1    
    65   32   34 1    
    66   32  100 1    
    67   33  101 1    
    68   33  102 1    
    69   33  103 1    
    70   34   35 am   BACKBONE|DICT|INTERRES
    71   34  104 1    
    72   35   36 2    
    73   37   38 2    
    74   37   39 am   BACKBONE|DICT|INTERRES
    75   39   40 1    
    76   39  105 1    
    77   40   41 1    
    78   40   42 1    
    79   40  106 1    
    80   41  107 1    
    81   41  108 1    
    82   41  109 1    
    83   42   43 2    
    84   42   44 am   BACKBONE|DICT|INTERRES
    85   44   45 1    
    86   44  110 1    
    87   45   46 1    
    88   45   47 1    
    89   45  111 1    
    90   46  112 1    
    91   46  113 1    
    92   46  114 1    
    93   47   48 2    
    94   47   49 am   BACKBONE|DICT|INTERRES
    95   49   50 1    
    96   49  115 1    
    97   50   51 1    
    98   50   52 1    
    99   50  116 1    
   100   51  117 1    
   101   51  118 1    
   102   51  119 1    
   103   52   53 2    
   104   52   54 am   BACKBONE|DICT|INTERRES
   105   54   55 1    
   106   54  120 1    
   107   55   56 1    
   108   55   57 1    
   109   55  121 1    
   110   56  122 1    
   111   56  123 1    
   112   56  124 1    
   113   57   58 2    
   114   57   59 am   BACKBONE|DICT|INTERRES
   115   59   60 1    
   116   59  125 1    
   117   60   61 1    
   118   60   62 1    
   119   60  126 1    
   120   61  127 1    
   121   61  128 1    
   122   61  129 1    
   123   62   63 2    
   124   62   64 am   BACKBONE|DICT|INTERRES
   125   64   65 1    
   126   64  130 1    
   127   65   66 1    
   128   65   69 1    
   129   65  131 1    
   130   66   67 am   BACKBONE|DICT|INTERRES
   131   66   68 2    
   132   67  132 1    
   133   67  133 1    
   134   69   70 1    
   135   69  134 1    
   136   69  135 1    
   137   70   71 1    
   138   71  136 1    
   139   71  137 1    
@<TRIPOS>SUBSTRUCTURE
     1 UNK         1 GROUP             0       ****    0 ROOT    
