@<TRIPOS>MOLECULE
3R137
137   139    1
SMALL
USER_CHARGES


@<TRIPOS>ATOM
      1 CA         25.9007    0.5780    2.7004 C.3       0 UNK        -0.2020 
      2 C          25.9012    0.5776    1.1792 C.2       0 UNK         0.4855 
      3 O          25.3065    1.4646    0.5668 O.2       0 UNK        -0.5197 
      4 N          26.5636   -0.4118    0.5647 N.am      1 UNK        -0.4892 
      5 CA         26.6868   -0.5657   -0.8935 C.3       1 UNK         0.0835 
      6 C6         27.8352   -1.5363   -1.2708 C.3       12 UNK        -0.0855 
      7 S7         29.4466   -0.9095   -0.6784 S.3       12 UNK        -0.2931 
      8 C8         30.6002   -2.2112   -1.2169 C.3       12 UNK         0.0378 
      9 C9         30.7895   -2.2341   -2.7276 C.ar      12 UNK        -0.0802 
     10 C10        31.5463   -1.2436   -3.3634 C.ar      12 UNK        -0.0944 
     11 C11        31.7307   -1.2703   -4.7499 C.ar      12 UNK        -0.0787 
     12 C12        31.1627   -2.3052   -5.4999 C.ar      12 UNK        -0.0862 
     13 C13        30.4134   -3.3043   -4.8734 C.ar      12 UNK        -0.0733 
     14 C14        30.2257   -3.2609   -3.4892 C.ar      12 UNK        -0.0832 
     15 C15        29.8147   -4.4447   -5.6790 C.3       12 UNK         0.0240 
     16 S16        28.0716   -4.1271   -6.0850 S.3       12 UNK        -0.2522 
     17 C17        28.1858   -3.2544   -7.6859 C.3       12 UNK        -0.0967 
     18 CA         27.5315   -1.8506   -7.7103 C.3       5 UNK         0.0660 
     19 N          26.2129   -1.8428   -7.0696 N.am      5 UNK        -0.4015 
     20 C          25.3276   -0.8418   -7.1270 C.2       4 UNK         0.4946 
     21 O          25.5066    0.1688   -7.8081 O.2       4 UNK        -0.5353 
     22 CA         24.0907   -0.9182   -6.2150 C.3       4 UNK         0.0277 
     23 CB         22.7831   -0.9270   -7.0316 C.3       4 UNK        -0.1981 
     24 N          24.1227   -1.9912   -5.2061 N.am      4 UNK        -0.4209 
     25 C          23.9568   -3.3139   -5.3799 C.2       3 UNK         0.4942 
     26 O          23.8266   -3.8417   -6.4840 O.2       3 UNK        -0.5208 
     27 CA         23.9558   -4.2165   -4.1255 C.3       3 UNK         0.0250 
     28 CB         25.1831   -5.1422   -4.1076 C.3       3 UNK        -0.1990 
     29 N          23.9089   -3.4838   -2.8580 N.am      3 UNK        -0.4232 
     30 C          22.8557   -2.7965   -2.3978 C.2       2 UNK         0.4993 
     31 O          21.7522   -2.7945   -2.9440 O.2       2 UNK        -0.5286 
     32 CA         23.0682   -1.9422   -1.1339 C.3       2 UNK         0.0209 
     33 CB         22.4040   -2.6107    0.0815 C.3       2 UNK        -0.1931 
     34 N          24.4637   -1.6232   -0.7945 N.am      2 UNK        -0.4546 
     35 C          25.3559   -0.9765   -1.5632 C.2       1 UNK         0.5154 
     36 O          25.1613   -0.6970   -2.7482 O.2       1 UNK        -0.5181 
     37 C          28.4695   -0.7399   -7.1853 C.2       5 UNK         0.5014 
     38 O          29.3707   -0.3219   -7.9154 O.2       5 UNK        -0.5248 
     39 N          28.2139   -0.2435   -5.9654 N.am      6 UNK        -0.4434 
     40 CA         28.8585    0.9371   -5.3909 C.3       6 UNK         0.0363 
     41 CB         28.5989    0.9816   -3.8808 C.3       6 UNK        -0.1936 
     42 C          28.4096    2.2515   -6.0455 C.2       6 UNK         0.5081 
     43 O          29.2351    3.1491   -6.2043 O.2       6 UNK        -0.5248 
     44 N          27.1310    2.3412   -6.4412 N.am      7 UNK        -0.4718 
     45 CA         26.5771    3.4912   -7.1646 C.3       7 UNK         0.0273 
     46 CB         25.0420    3.4777   -7.0807 C.3       7 UNK        -0.1935 
     47 C          27.0528    3.5218   -8.6256 C.2       7 UNK         0.5018 
     48 O          27.3002    4.6022   -9.1615 O.2       7 UNK        -0.5186 
     49 N          27.2231    2.3324   -9.2215 N.am      8 UNK        -0.4240 
     50 CA         27.8742    2.1373  -10.5204 C.3       8 UNK         0.0235 
     51 CB         27.5544    0.7231  -11.0319 C.3       8 UNK        -0.2000 
     52 C          29.4016    2.3527  -10.4767 C.2       8 UNK         0.4941 
     53 O          30.0050    2.5388  -11.5338 O.2       8 UNK        -0.5273 
     54 N          29.9916    2.3012   -9.2710 N.am      9 UNK        -0.4262 
     55 CA         31.4233    2.3755   -8.9547 C.3       9 UNK         0.0264 
     56 CB         31.9894    3.7727   -9.2828 C.3       9 UNK        -0.1955 
     57 C          32.2323    1.2298   -9.5935 C.2       9 UNK         0.5031 
     58 O          33.3670    1.4390  -10.0285 O.2       9 UNK        -0.5390 
     59 N          31.6362    0.0288   -9.6317 N.am      10 UNK        -0.4204 
     60 CA         32.1705   -1.1528  -10.3186 C.3       10 UNK         0.0237 
     61 CB         31.0948   -2.2480  -10.3468 C.3       10 UNK        -0.1985 
     62 C          33.4737   -1.7013   -9.7118 C.2       10 UNK         0.4970 
     63 O          34.2351   -2.3605  -10.4205 O.2       10 UNK        -0.4914 
     64 N          33.7059   -1.4181   -8.4247 N.am      11 UNK        -0.4285 
     65 CA         34.9405   -1.7434   -7.7008 C.3       11 UNK         0.1007 
     66 C          36.1524   -0.8217   -8.0365 C.2       11 UNK         0.5703 
     67 N          35.9874    0.2552   -8.7989 N.am      11 UNK        -0.7361 
     68 O          37.2700   -1.1015   -7.6090 O.2       11 UNK        -0.4986 
     69 C69        34.6791   -1.8881   -6.1767 C.3       12 UNK        -0.0947 
     70 S70        34.3099   -0.3297   -5.2936 S.3       12 UNK        -0.2240 
     71 C71        32.5037   -0.1574   -5.4437 C.3       12 UNK         0.0194 
     72 H72        26.3420    1.5013    3.0750 H         1 UNK         0.0906 
     73 H73        24.8796    0.5118    3.0754 H         1 UNK         0.0906 
     74 H74        26.4672   -0.2583    3.1096 H         1 UNK         0.0906 
     75 H75        27.0667   -1.0918    1.1179 H         1 UNK         0.3140 
     76 H76        26.9341    0.4165   -1.3026 H         1 UNK         0.1085 
     77 H77        27.6612   -2.5276   -0.8480 H         1 UNK         0.0836 
     78 H78        27.8908   -1.6694   -2.3529 H         1 UNK         0.0836 
     79 H79        30.2503   -3.1778   -0.8510 H         1 UNK         0.0731 
     80 H80        31.5668   -2.0397   -0.7410 H         1 UNK         0.0731 
     81 H81        31.9811   -0.4441   -2.7791 H         1 UNK         0.1312 
     82 H82        31.2977   -2.3303   -6.5722 H         1 UNK         0.1406 
     83 H83        29.6426   -4.0330   -3.0055 H         1 UNK         0.1631 
     84 H84        29.8708   -5.3658   -5.0969 H         1 UNK         0.0717 
     85 H85        30.3927   -4.6309   -6.5854 H         1 UNK         0.0717 
     86 H86        29.2231   -3.2072   -8.0127 H         1 UNK         0.0934 
     87 H87        27.6867   -3.8865   -8.4223 H         1 UNK         0.0934 
     88 H88        27.3585   -1.6064   -8.7599 H         1 UNK         0.0739 
     89 H89        25.9875   -2.6557   -6.5135 H         1 UNK         0.3093 
     90 H90        24.0995    0.0081   -5.6382 H         1 UNK         0.0818 
     91 H91        22.7179   -1.7916   -7.6923 H         1 UNK         0.0819 
     92 H92        21.9087   -0.9330   -6.3808 H         1 UNK         0.0819 
     93 H93        22.7130   -0.0381   -7.6601 H         1 UNK         0.0819 
     94 H94        24.2991   -1.6650   -4.2592 H         1 UNK         0.3041 
     95 H95        23.0615   -4.8399   -4.1897 H         1 UNK         0.0784 
     96 H96        25.2895   -5.6804   -5.0507 H         1 UNK         0.0793 
     97 H97        26.1050   -4.5846   -3.9419 H         1 UNK         0.0793 
     98 H98        25.1011   -5.8907   -3.3193 H         1 UNK         0.0793 
     99 H99        24.7686   -3.4301   -2.3321 H         1 UNK         0.3024 
    100 H100       22.5621   -0.9920   -1.3186 H         1 UNK         0.1171 
    101 H101       21.3546   -2.8338   -0.1176 H         1 UNK         0.0786 
    102 H102       22.8931   -3.5503    0.3415 H         1 UNK         0.0786 
    103 H103       22.4321   -1.9621    0.9574 H         1 UNK         0.0786 
    104 H104       24.7378   -1.8044    0.1606 H         1 UNK         0.2977 
    105 H105       27.4825   -0.6736   -5.4198 H         1 UNK         0.3127 
    106 H106       29.9319    0.8487   -5.5517 H         1 UNK         0.0770 
    107 H107       27.5334    1.0181   -3.6514 H         1 UNK         0.0814 
    108 H108       29.0648    1.8570   -3.4263 H         1 UNK         0.0814 
    109 H109       29.0232    0.1066   -3.3948 H         1 UNK         0.0814 
    110 H110       26.5251    1.5386   -6.3394 H         1 UNK         0.2983 
    111 H111       26.9332    4.4044   -6.6819 H         1 UNK         0.0947 
    112 H112       24.6217    4.3647   -7.5567 H         1 UNK         0.0806 
    113 H113       24.7006    3.4744   -6.0455 H         1 UNK         0.0806 
    114 H114       24.6106    2.6099   -7.5797 H         1 UNK         0.0806 
    115 H115       26.9101    1.5036   -8.7276 H         1 UNK         0.3000 
    116 H116       27.4577    2.8615  -11.2239 H         1 UNK         0.0850 
    117 H117       27.9361    0.5810  -12.0439 H         1 UNK         0.0810 
    118 H118       26.4798    0.5413  -11.0617 H         1 UNK         0.0810 
    119 H119       28.0100   -0.0433  -10.4054 H         1 UNK         0.0810 
    120 H120       29.3923    2.1181   -8.4781 H         1 UNK         0.3040 
    121 H121       31.5011    2.2347   -7.8756 H         1 UNK         0.0766 
    122 H122       31.4044    4.5582   -8.8042 H         1 UNK         0.0812 
    123 H123       31.9971    3.9651  -10.3560 H         1 UNK         0.0812 
    124 H124       33.0159    3.8718   -8.9278 H         1 UNK         0.0812 
    125 H125       30.7286   -0.0706   -9.1788 H         1 UNK         0.3205 
    126 H126       32.3880   -0.8602  -11.3480 H         1 UNK         0.0754 
    127 H127       31.4145   -3.0928  -10.9585 H         1 UNK         0.0769 
    128 H128       30.1563   -1.8809  -10.7632 H         1 UNK         0.0769 
    129 H129       30.8981   -2.6288   -9.3463 H         1 UNK         0.0769 
    130 H130       33.0407   -0.8451   -7.9322 H         1 UNK         0.2981 
    131 H131       35.2468   -2.7337   -8.0433 H         1 UNK         0.0541 
    132 H132       35.0787    0.5043   -9.1700 H         1 UNK         0.3459 
    133 H133       36.7861    0.8323   -9.0079 H         1 UNK         0.3459 
    134 H134       35.5586   -2.3240   -5.7000 H         1 UNK         0.0612 
    135 H135       33.8802   -2.6080   -6.0004 H         1 UNK         0.0612 
    136 H136       32.2245    0.7992   -4.9999 H         1 UNK         0.0624 
    137 H137       32.2213   -0.0894   -6.4940 H         1 UNK         0.0624 
@<TRIPOS>BOND
     1    1    2 1    
     2    1   72 1    
     3    1   73 1    
     4    1   74 1    
     5    2    3 2    
     6    2    4 am   BACKBONE|DICT|INTERRES
     7    4    5 1    
     8    4   75 1    
     9    5    6 1    
    10    5   35 1    
    11    5   76 1    
    12    6    7 1    
    13    6   77 1    
    14    6   78 1    
    15    7    8 1    
    16    8    9 1    
    17    8   79 1    
    18    8   80 1    
    19    9   10 ar   
    20    9   14 ar   
    21   10   11 ar   
    22   10   81 1    
    23   11   12 ar   
    24   11   71 1    
    25   12   13 ar   
    26   12   82 1    
    27   13   14 ar   
    28   13   15 1    
    29   14   83 1    
    30   15   16 1    
    31   15   84 1    
    32   15   85 1    
    33   16   17 1    
    34   17   18 1    
    35   17   86 1    
    36   17   87 1    
    37   18   19 1    
    38   18   37 1    
    39   18   88 1    
    40   19   20 am   BACKBONE|DICT|INTERRES
    41   19   89 1    
    42   20   21 2    
    43   20   22 1    
    44   22   23 1    
    45   22   24 1    
    46   22   90 1    
    47   23   91 1    
    48   23   92 1    
    49   23   93 1    
    50   24   25 am   BACKBONE|DICT|INTERRES
    51   24   94 1    
    52   25   26 2    
    53   25   27 1    
    54   27   28 1    
    55   27   29 1    
    56   27   95 1    
    57   28   96 1    
    58   28   97 1    
    59   28   98 1    
    60   29   30 am   BACKBONE|DICT|INTERRES
    61   29   99 1    
    62   30   31 2    
    63   30   32 1    
    64   32   33 1    
    65   32   34 1    
    66   32  100 1    
    67   33  101 1    
    68   33  102 1    
    69   33  103 1    
    70   34   35 am   BACKBONE|DICT|INTERRES
    71   34  104 1    
    72   35   36 2    
    73   37   38 2    
    74   37   39 am   BACKBONE|DICT|INTERRES
    75   39   40 1    
    76   39  105 1    
    77   40   41 1    
    78   40   42 1    
    79   40  106 1    
    80   41  107 1    
    81   41  108 1    
    82   41  109 1    
    83   42   43 2    
    84   42   44 am   BACKBONE|DICT|INTERRES
    85   44   45 1    
    86   44  110 1    
    87   45   46 1    
    88   45   47 1    
    89   45  111 1    
    90   46  112 1    
    91   46  113 1    
    92   46  114 1    
    93   47   48 2    
    94   47   49 am   BACKBONE|DICT|INTERRES
    95   49   50 1    
    96   49  115 1    
    97   50   51 1    
    98   50   52 1    
    99   50  116 1    
   100   51  117 1    
   101   51  118 1    
   102   51  119 1    
   103   52   53 2    
   104   52   54 am   BACKBONE|DICT|INTERRES
   105   54   55 1    
   106   54  120 1    
   107   55   56 1    
   108   55   57 1    
   109   55  121 1    
   110   56  122 1    
   111   56  123 1    
   112   56  124 1    
   113   57   58 2    
   114   57   59 am   BACKBONE|DICT|INTERRES
   115   59   60 1    
   116   59  125 1    
   117   60   61 1    
   118   60   62 1    
   119   60  126 1    
   120   61  127 1    
   121   61  128 1    
   122   61  129 1    
   123   62   63 2    
   124   62   64 am   BACKBONE|DICT|INTERRES
   125   64   65 1    
   126   64  130 1    
   127   65   66 1    
   128   65   69 1    
   129   65  131 1    
   130   66   67 am   BACKBONE|DICT|INTERRES
   131   66   68 2    
   132   67  132 1    
   133   67  133 1    
   134   69   70 1    
   135   69  134 1    
   136   69  135 1    
   137   70   71 1    
   138   71  136 1    
   139   71  137 1    
@<TRIPOS>SUBSTRUCTURE
     1 UNK         1 GROUP             0       ****    0 ROOT    
