@<TRIPOS>MOLECULE
3R137
137   139    1
SMALL
USER_CHARGES


@<TRIPOS>ATOM
      1 CA         27.1261   -5.1550    1.0569 C.3       0 UNK        -0.2020 
      2 C          27.1592   -4.9326   -0.4513 C.2       0 UNK         0.4855 
      3 O          27.0604   -5.8964   -1.2071 O.2       0 UNK        -0.5197 
      4 N          27.2968   -3.6964   -0.9466 N.am      1 UNK        -0.4892 
      5 CA         27.4000   -2.4329   -0.1979 C.3       1 UNK         0.0835 
      6 C6         28.7864   -1.7605   -0.3764 C.3       12 UNK        -0.0855 
      7 S7         30.1768   -2.8052    0.1719 S.3       12 UNK        -0.2931 
      8 C8         31.4714   -2.3262   -1.0285 C.3       12 UNK         0.0378 
      9 C9         31.3304   -2.8809   -2.4504 C.ar      12 UNK        -0.0802 
     10 C10        32.2691   -2.4776   -3.4058 C.ar      12 UNK        -0.0944 
     11 C11        32.2345   -2.9877   -4.7060 C.ar      12 UNK        -0.0787 
     12 C12        31.2294   -3.8901   -5.0641 C.ar      12 UNK        -0.0862 
     13 C13        30.2743   -4.3009   -4.1288 C.ar      12 UNK        -0.0733 
     14 C14        30.3395   -3.8003   -2.8244 C.ar      12 UNK        -0.0832 
     15 C15        29.2309   -5.3554   -4.4900 C.3       12 UNK         0.0240 
     16 S16        28.3503   -5.0218   -6.0525 S.3       12 UNK        -0.2522 
     17 C17        27.0700   -3.8300   -5.5378 C.3       12 UNK        -0.0967 
     18 CA         26.7437   -2.8166   -6.6683 C.3       5 UNK         0.0660 
     19 N          25.4209   -2.2237   -6.5099 N.am      5 UNK        -0.4015 
     20 C          24.4919   -2.1526   -7.4739 C.2       4 UNK         0.4946 
     21 O          24.5779   -2.7354   -8.5555 O.2       4 UNK        -0.5353 
     22 CA         23.2496   -1.2771   -7.2088 C.3       4 UNK         0.0277 
     23 CB         22.0278   -2.1592   -6.9024 C.3       4 UNK        -0.1981 
     24 N          23.4129   -0.3001   -6.1285 N.am      4 UNK        -0.4209 
     25 C          24.3245    0.6826   -6.0941 C.2       3 UNK         0.4942 
     26 O          25.1140    0.9192   -7.0074 O.2       3 UNK        -0.5208 
     27 CA         24.4347    1.4730   -4.7781 C.3       3 UNK         0.0250 
     28 CB         23.5140    2.7032   -4.8097 C.3       3 UNK        -0.1990 
     29 N          24.1366    0.6696   -3.5854 N.am      3 UNK        -0.4232 
     30 C          24.7791   -0.4513   -3.2269 C.2       2 UNK         0.4993 
     31 O          25.7129   -0.9475   -3.8683 O.2       2 UNK        -0.5286 
     32 CA         24.2249   -1.1837   -1.9954 C.3       2 UNK         0.0209 
     33 CB         23.0755   -2.1171   -2.4112 C.3       2 UNK        -0.1931 
     34 N          25.2670   -1.9790   -1.3496 N.am      2 UNK        -0.4546 
     35 C          26.2684   -1.4694   -0.6185 C.2       1 UNK         0.5154 
     36 O          26.3227   -0.2830   -0.2892 O.2       1 UNK        -0.5181 
     37 C          27.7764   -1.6812   -6.7688 C.2       5 UNK         0.5014 
     38 O          28.3568   -1.4822   -7.8362 O.2       5 UNK        -0.5248 
     39 N          27.9860   -0.9587   -5.6590 N.am      6 UNK        -0.4434 
     40 CA         29.1238   -0.0592   -5.4707 C.3       6 UNK         0.0363 
     41 CB         29.2394    0.3321   -3.9909 C.3       6 UNK        -0.1936 
     42 C          29.1110    1.1830   -6.3694 C.2       6 UNK         0.5081 
     43 O          30.1372    1.4963   -6.9697 O.2       6 UNK        -0.5248 
     44 N          27.9674    1.8737   -6.4591 N.am      7 UNK        -0.4718 
     45 CA         27.8304    3.0738   -7.2913 C.3       7 UNK         0.0273 
     46 CB         26.6237    3.9124   -6.8411 C.3       7 UNK        -0.1935 
     47 C          27.7371    2.7174   -8.7815 C.2       7 UNK         0.5018 
     48 O          28.3251    3.4184   -9.6043 O.2       7 UNK        -0.5186 
     49 N          27.0424    1.6135   -9.0919 N.am      8 UNK        -0.4240 
     50 CA         26.9046    1.0505  -10.4367 C.3       8 UNK         0.0235 
     51 CB         25.9321   -0.1378  -10.3965 C.3       8 UNK        -0.2000 
     52 C          28.2488    0.6350  -11.0597 C.2       8 UNK         0.4941 
     53 O          28.4992    0.9595  -12.2210 O.2       8 UNK        -0.5273 
     54 N          29.0969   -0.0473  -10.2769 N.am      9 UNK        -0.4262 
     55 CA         30.4482   -0.4499  -10.6801 C.3       9 UNK         0.0264 
     56 CB         30.8505   -1.7037   -9.8880 C.3       9 UNK        -0.1955 
     57 C          31.5013    0.6656  -10.5193 C.2       9 UNK         0.5031 
     58 O          32.6280    0.4822  -10.9831 O.2       9 UNK        -0.5390 
     59 N          31.1295    1.7851   -9.8784 N.am      10 UNK        -0.4204 
     60 CA         31.9576    2.9536   -9.5507 C.3       10 UNK         0.0237 
     61 CB         32.3905    3.7019  -10.8297 C.3       10 UNK        -0.1985 
     62 C          33.1350    2.6017   -8.6190 C.2       10 UNK         0.4970 
     63 O          34.2725    3.0069   -8.8685 O.2       10 UNK        -0.4914 
     64 N          32.8303    1.8374   -7.5662 N.am      11 UNK        -0.4285 
     65 CA         33.7648    1.3941   -6.5253 C.3       11 UNK         0.1007 
     66 C          34.2121    2.5561   -5.5982 C.2       11 UNK         0.5703 
     67 N          35.4202    2.4831   -5.0559 N.am      11 UNK        -0.7361 
     68 O          33.4679    3.4998   -5.3356 O.2       11 UNK        -0.4986 
     69 C69        33.1634    0.2252   -5.7020 C.3       12 UNK        -0.0947 
     70 S70        32.8020   -1.2179   -6.7578 S.3       12 UNK        -0.2240 
     71 C71        33.3121   -2.6103   -5.7113 C.3       12 UNK         0.0194 
     72 H72        28.0209   -4.7496    1.5288 H         1 UNK         0.0906 
     73 H73        26.2471   -4.6863    1.4983 H         1 UNK         0.0906 
     74 H74        27.0862   -6.2198    1.2856 H         1 UNK         0.0906 
     75 H75        27.3209   -3.5887   -1.9502 H         1 UNK         0.3140 
     76 H76        27.2474   -2.5953    0.8694 H         1 UNK         0.1085 
     77 H77        28.9332   -1.4899   -1.4215 H         1 UNK         0.0836 
     78 H78        28.8417   -0.8278    0.1887 H         1 UNK         0.0836 
     79 H79        32.4307   -2.6594   -0.6299 H         1 UNK         0.0731 
     80 H80        31.5207   -1.2369   -1.0710 H         1 UNK         0.0731 
     81 H81        33.0509   -1.7838   -3.1277 H         1 UNK         0.1312 
     82 H82        31.2062   -4.2933   -6.0674 H         1 UNK         0.1406 
     83 H83        29.6323   -4.1609   -2.0946 H         1 UNK         0.1631 
     84 H84        28.4994   -5.4783   -3.6896 H         1 UNK         0.0717 
     85 H85        29.7403   -6.3152   -4.5840 H         1 UNK         0.0717 
     86 H86        26.1792   -4.4126   -5.2967 H         1 UNK         0.0934 
     87 H87        27.3586   -3.3370   -4.6079 H         1 UNK         0.0934 
     88 H88        26.7795   -3.3578   -7.6165 H         1 UNK         0.0739 
     89 H89        25.2781   -1.6994   -5.6532 H         1 UNK         0.3093 
     90 H90        23.0518   -0.7191   -8.1264 H         1 UNK         0.0818 
     91 H91        21.1200   -1.5631   -6.8075 H         1 UNK         0.0819 
     92 H92        21.8556   -2.8800   -7.7032 H         1 UNK         0.0819 
     93 H93        22.1590   -2.7244   -5.9787 H         1 UNK         0.0819 
     94 H94        22.8106   -0.4121   -5.3265 H         1 UNK         0.3041 
     95 H95        25.4660    1.8190   -4.6884 H         1 UNK         0.0784 
     96 H96        23.7085    3.3199   -5.6878 H         1 UNK         0.0793 
     97 H97        22.4610    2.4204   -4.8406 H         1 UNK         0.0793 
     98 H98        23.6666    3.3350   -3.9344 H         1 UNK         0.0793 
     99 H99        23.3760    0.9973   -3.0065 H         1 UNK         0.3024 
    100 H100       23.8506   -0.4473   -1.2801 H         1 UNK         0.1171 
    101 H101       22.2532   -1.5563   -2.8575 H         1 UNK         0.0786 
    102 H102       23.3999   -2.8585   -3.1431 H         1 UNK         0.0786 
    103 H103       22.6688   -2.6512   -1.5521 H         1 UNK         0.0786 
    104 H104       25.2935   -2.9626   -1.5745 H         1 UNK         0.2977 
    105 H105       27.3752   -1.0978   -4.8588 H         1 UNK         0.3127 
    106 H106       30.0216   -0.6249   -5.7288 H         1 UNK         0.0770 
    107 H107       28.3128    0.7610   -3.6072 H         1 UNK         0.0814 
    108 H108       30.0321    1.0658   -3.8376 H         1 UNK         0.0814 
    109 H109       29.4903   -0.5372   -3.3860 H         1 UNK         0.0814 
    110 H110       27.1345    1.5132   -6.0161 H         1 UNK         0.2983 
    111 H111       28.7246    3.6868   -7.1538 H         1 UNK         0.0947 
    112 H112       26.6167    4.8763   -7.3514 H         1 UNK         0.0806 
    113 H113       26.6514    4.1134   -5.7702 H         1 UNK         0.0806 
    114 H114       25.6775    3.4259   -7.0718 H         1 UNK         0.0806 
    115 H115       26.5404    1.1458   -8.3421 H         1 UNK         0.3000 
    116 H116       26.4707    1.8259  -11.0716 H         1 UNK         0.0850 
    117 H117       25.7722   -0.5471  -11.3948 H         1 UNK         0.0810 
    118 H118       24.9580    0.1575  -10.0058 H         1 UNK         0.0810 
    119 H119       26.3115   -0.9457   -9.7699 H         1 UNK         0.0810 
    120 H120       28.7963   -0.3379   -9.3483 H         1 UNK         0.3040 
    121 H121       30.4335   -0.7194  -11.7383 H         1 UNK         0.0766 
    122 H122       30.8326   -1.5164   -8.8152 H         1 UNK         0.0812 
    123 H123       31.8574   -2.0331  -10.1471 H         1 UNK         0.0812 
    124 H124       30.1735   -2.5338  -10.0897 H         1 UNK         0.0812 
    125 H125       30.1842    1.8174   -9.5204 H         1 UNK         0.3205 
    126 H126       31.3139    3.6259   -8.9812 H         1 UNK         0.0754 
    127 H127       32.9022    4.6327  -10.5824 H         1 UNK         0.0769 
    128 H128       31.5294    3.9598  -11.4464 H         1 UNK         0.0769 
    129 H129       33.0732    3.1075  -11.4376 H         1 UNK         0.0769 
    130 H130       31.8519    1.6008   -7.4060 H         1 UNK         0.2981 
    131 H131       34.6568    1.0228   -7.0341 H         1 UNK         0.0541 
    132 H132       36.0362    1.7102   -5.2550 H         1 UNK         0.3459 
    133 H133       35.7254    3.2205   -4.4401 H         1 UNK         0.3459 
    134 H134       32.2426    0.5325   -5.2039 H         1 UNK         0.0612 
    135 H135       33.8542   -0.0758   -4.9130 H         1 UNK         0.0612 
    136 H136       34.2514   -2.3781   -5.2073 H         1 UNK         0.0624 
    137 H137       33.5222   -3.4651   -6.3559 H         1 UNK         0.0624 
@<TRIPOS>BOND
     1    1    2 1    
     2    1   72 1    
     3    1   73 1    
     4    1   74 1    
     5    2    3 2    
     6    2    4 am   BACKBONE|DICT|INTERRES
     7    4    5 1    
     8    4   75 1    
     9    5    6 1    
    10    5   35 1    
    11    5   76 1    
    12    6    7 1    
    13    6   77 1    
    14    6   78 1    
    15    7    8 1    
    16    8    9 1    
    17    8   79 1    
    18    8   80 1    
    19    9   10 ar   
    20    9   14 ar   
    21   10   11 ar   
    22   10   81 1    
    23   11   12 ar   
    24   11   71 1    
    25   12   13 ar   
    26   12   82 1    
    27   13   14 ar   
    28   13   15 1    
    29   14   83 1    
    30   15   16 1    
    31   15   84 1    
    32   15   85 1    
    33   16   17 1    
    34   17   18 1    
    35   17   86 1    
    36   17   87 1    
    37   18   19 1    
    38   18   37 1    
    39   18   88 1    
    40   19   20 am   BACKBONE|DICT|INTERRES
    41   19   89 1    
    42   20   21 2    
    43   20   22 1    
    44   22   23 1    
    45   22   24 1    
    46   22   90 1    
    47   23   91 1    
    48   23   92 1    
    49   23   93 1    
    50   24   25 am   BACKBONE|DICT|INTERRES
    51   24   94 1    
    52   25   26 2    
    53   25   27 1    
    54   27   28 1    
    55   27   29 1    
    56   27   95 1    
    57   28   96 1    
    58   28   97 1    
    59   28   98 1    
    60   29   30 am   BACKBONE|DICT|INTERRES
    61   29   99 1    
    62   30   31 2    
    63   30   32 1    
    64   32   33 1    
    65   32   34 1    
    66   32  100 1    
    67   33  101 1    
    68   33  102 1    
    69   33  103 1    
    70   34   35 am   BACKBONE|DICT|INTERRES
    71   34  104 1    
    72   35   36 2    
    73   37   38 2    
    74   37   39 am   BACKBONE|DICT|INTERRES
    75   39   40 1    
    76   39  105 1    
    77   40   41 1    
    78   40   42 1    
    79   40  106 1    
    80   41  107 1    
    81   41  108 1    
    82   41  109 1    
    83   42   43 2    
    84   42   44 am   BACKBONE|DICT|INTERRES
    85   44   45 1    
    86   44  110 1    
    87   45   46 1    
    88   45   47 1    
    89   45  111 1    
    90   46  112 1    
    91   46  113 1    
    92   46  114 1    
    93   47   48 2    
    94   47   49 am   BACKBONE|DICT|INTERRES
    95   49   50 1    
    96   49  115 1    
    97   50   51 1    
    98   50   52 1    
    99   50  116 1    
   100   51  117 1    
   101   51  118 1    
   102   51  119 1    
   103   52   53 2    
   104   52   54 am   BACKBONE|DICT|INTERRES
   105   54   55 1    
   106   54  120 1    
   107   55   56 1    
   108   55   57 1    
   109   55  121 1    
   110   56  122 1    
   111   56  123 1    
   112   56  124 1    
   113   57   58 2    
   114   57   59 am   BACKBONE|DICT|INTERRES
   115   59   60 1    
   116   59  125 1    
   117   60   61 1    
   118   60   62 1    
   119   60  126 1    
   120   61  127 1    
   121   61  128 1    
   122   61  129 1    
   123   62   63 2    
   124   62   64 am   BACKBONE|DICT|INTERRES
   125   64   65 1    
   126   64  130 1    
   127   65   66 1    
   128   65   69 1    
   129   65  131 1    
   130   66   67 am   BACKBONE|DICT|INTERRES
   131   66   68 2    
   132   67  132 1    
   133   67  133 1    
   134   69   70 1    
   135   69  134 1    
   136   69  135 1    
   137   70   71 1    
   138   71  136 1    
   139   71  137 1    
@<TRIPOS>SUBSTRUCTURE
     1 UNK         1 GROUP             0       ****    0 ROOT    
