@<TRIPOS>MOLECULE
3R137
137   139    1
SMALL
USER_CHARGES


@<TRIPOS>ATOM
      1 CA         28.3758   -6.7475   -2.0093 C.3       0 UNK        -0.2020 
      2 C          27.0772   -6.0315   -1.6703 C.2       0 UNK         0.4855 
      3 O          26.0333   -6.6740   -1.5575 O.2       0 UNK        -0.5197 
      4 N          27.1327   -4.7033   -1.5101 N.am      1 UNK        -0.4892 
      5 CA         25.9798   -3.8421   -1.2109 C.3       1 UNK         0.0835 
      6 C6         26.4246   -2.5017   -0.5731 C.3       12 UNK        -0.0855 
      7 S7         27.5747   -1.5345   -1.6142 S.3       12 UNK        -0.2931 
      8 C8         29.0880   -1.5598   -0.6110 C.3       12 UNK         0.0378 
      9 C9         30.1665   -0.7122   -1.2632 C.ar      12 UNK        -0.0802 
     10 C10        31.0850   -1.2911   -2.1420 C.ar      12 UNK        -0.0944 
     11 C11        32.0693   -0.5118   -2.7587 C.ar      12 UNK        -0.0787 
     12 C12        32.1333    0.8595   -2.4794 C.ar      12 UNK        -0.0862 
     13 C13        31.2220    1.4486   -1.5945 C.ar      12 UNK        -0.0733 
     14 C14        30.2425    0.6554   -0.9901 C.ar      12 UNK        -0.0832 
     15 C15        31.3197    2.9300   -1.2485 C.3       12 UNK         0.0240 
     16 S16        30.6527    4.0190   -2.5486 S.3       12 UNK        -0.2522 
     17 C17        28.8608    3.6480   -2.5201 C.3       12 UNK        -0.0967 
     18 CA         28.2604    3.5547   -3.9454 C.3       5 UNK         0.0660 
     19 N          29.0203    2.6337   -4.7894 N.am      5 UNK        -0.4015 
     20 C          28.8370    2.4398   -6.0984 C.2       4 UNK         0.4946 
     21 O          27.9615    2.9995   -6.7561 O.2       4 UNK        -0.5353 
     22 CA         29.7515    1.4107   -6.7781 C.3       4 UNK         0.0277 
     23 CB         31.1073    1.2402   -6.0649 C.3       4 UNK        -0.1981 
     24 N          29.1095    0.1037   -6.9530 N.am      4 UNK        -0.4209 
     25 C          28.3991   -0.6145   -6.0733 C.2       3 UNK         0.4942 
     26 O          28.0859   -0.2320   -4.9426 O.2       3 UNK        -0.5208 
     27 CA         27.9500   -1.9998   -6.5514 C.3       3 UNK         0.0250 
     28 CB         29.1160   -3.0041   -6.5419 C.3       3 UNK        -0.1990 
     29 N          26.8860   -2.4737   -5.6723 N.am      3 UNK        -0.4232 
     30 C          25.9186   -3.3335   -6.0102 C.2       2 UNK         0.4993 
     31 O          25.8334   -3.8616   -7.1198 O.2       2 UNK        -0.5286 
     32 CA         24.8921   -3.6707   -4.9175 C.3       2 UNK         0.0209 
     33 CB         24.0352   -4.9096   -5.2483 C.3       2 UNK        -0.1931 
     34 N          25.5765   -3.8618   -3.6403 N.am      2 UNK        -0.4546 
     35 C          25.0593   -3.6110   -2.4316 C.2       1 UNK         0.5154 
     36 O          23.9094   -3.2054   -2.2545 O.2       1 UNK        -0.5181 
     37 C          26.7492    3.2325   -3.8918 C.2       5 UNK         0.5014 
     38 O          25.9600    4.1460   -3.6439 O.2       5 UNK        -0.5248 
     39 N          26.3687    1.9660   -4.1235 N.am      6 UNK        -0.4434 
     40 CA         24.9798    1.5066   -4.0991 C.3       6 UNK         0.0363 
     41 CB         24.9136    0.1666   -3.3489 C.3       6 UNK        -0.1936 
     42 C          24.3411    1.3576   -5.4913 C.2       6 UNK         0.5081 
     43 O          23.1118    1.3025   -5.5514 O.2       6 UNK        -0.5248 
     44 N          25.1304    1.2533   -6.5745 N.am      7 UNK        -0.4718 
     45 CA         24.6005    0.8820   -7.8993 C.3       7 UNK         0.0273 
     46 CB         24.4304   -0.6484   -7.9852 C.3       7 UNK        -0.1935 
     47 C          25.3820    1.4270   -9.1081 C.2       7 UNK         0.5018 
     48 O          25.1432    0.9563  -10.2215 O.2       7 UNK        -0.5186 
     49 N          26.2920    2.3891   -8.9057 N.am      8 UNK        -0.4240 
     50 CA         27.1190    3.0941   -9.9007 C.3       8 UNK         0.0235 
     51 CB         26.2575    3.8378  -10.9408 C.3       8 UNK        -0.2000 
     52 C          28.2021    2.2377  -10.5842 C.2       8 UNK         0.4941 
     53 O          29.3235    2.7207  -10.7463 O.2       8 UNK        -0.5273 
     54 N          27.8696    0.9992  -10.9711 N.am      9 UNK        -0.4262 
     55 CA         28.7858    0.0093  -11.5436 C.3       9 UNK         0.0264 
     56 CB         27.9818   -1.2167  -12.0060 C.3       9 UNK        -0.1955 
     57 C          29.8540   -0.3924  -10.5149 C.2       9 UNK         0.5031 
     58 O          29.4906   -0.8692   -9.4391 O.2       9 UNK        -0.5390 
     59 N          31.1298   -0.1499  -10.8402 N.am      10 UNK        -0.4204 
     60 CA         32.2766   -0.2850   -9.9365 C.3       10 UNK         0.0237 
     61 CB         33.5421    0.1989  -10.6643 C.3       10 UNK        -0.1985 
     62 C          32.4884   -1.7069   -9.3858 C.2       10 UNK         0.4970 
     63 O          32.1704   -2.6878  -10.0620 O.2       10 UNK        -0.4914 
     64 N          33.0689   -1.7749   -8.1814 N.am      11 UNK        -0.4285 
     65 CA         33.3965   -3.0175   -7.4620 C.3       11 UNK         0.1007 
     66 C          34.5517   -3.8543   -8.0876 C.2       11 UNK         0.5703 
     67 N          35.3406   -3.3195   -9.0126 N.am      11 UNK        -0.7361 
     68 O          34.7313   -5.0155   -7.7280 O.2       11 UNK        -0.4986 
     69 C69        33.6717   -2.7481   -5.9573 C.3       12 UNK        -0.0947 
     70 S70        32.2542   -1.9780   -5.1110 S.3       12 UNK        -0.2240 
     71 C71        33.0734   -1.1629   -3.7037 C.3       12 UNK         0.0194 
     72 H72        28.2805   -7.2657   -2.9631 H         1 UNK         0.0906 
     73 H73        29.2167   -6.0578   -2.0807 H         1 UNK         0.0906 
     74 H74        28.6077   -7.4860   -1.2423 H         1 UNK         0.0906 
     75 H75        28.0132   -4.2191   -1.6157 H         1 UNK         0.3140 
     76 H76        25.3647   -4.3611   -0.4718 H         1 UNK         0.1085 
     77 H77        26.8894   -2.6996    0.3940 H         1 UNK         0.0836 
     78 H78        25.5568   -1.8773   -0.3508 H         1 UNK         0.0836 
     79 H79        29.4326   -2.5877   -0.4886 H         1 UNK         0.0731 
     80 H80        28.8707   -1.1824    0.3896 H         1 UNK         0.0731 
     81 H81        31.0289   -2.3496   -2.3564 H         1 UNK         0.1312 
     82 H82        32.8966    1.4700   -2.9425 H         1 UNK         0.1406 
     83 H83        29.5355    1.1003   -0.3029 H         1 UNK         0.1631 
     84 H84        32.3666    3.1887   -1.0833 H         1 UNK         0.0717 
     85 H85        30.8071    3.1424   -0.3090 H         1 UNK         0.0717 
     86 H86        28.6818    2.7207   -1.9752 H         1 UNK         0.0934 
     87 H87        28.3628    4.4340   -1.9490 H         1 UNK         0.0934 
     88 H88        28.3487    4.5400   -4.4081 H         1 UNK         0.0739 
     89 H89        29.7342    2.0959   -4.3194 H         1 UNK         0.3093 
     90 H90        29.9505    1.7940   -7.7803 H         1 UNK         0.0818 
     91 H91        30.9942    0.7500   -5.0989 H         1 UNK         0.0819 
     92 H92        31.7875    0.6327   -6.6596 H         1 UNK         0.0819 
     93 H93        31.5974    2.2008   -5.8994 H         1 UNK         0.0819 
     94 H94        29.2548   -0.3143   -7.8767 H         1 UNK         0.3041 
     95 H95        27.5705   -1.9004   -7.5703 H         1 UNK         0.0784 
     96 H96        29.9387   -2.6586   -7.1697 H         1 UNK         0.0793 
     97 H97        29.5078   -3.1512   -5.5349 H         1 UNK         0.0793 
     98 H98        28.8057   -3.9757   -6.9258 H         1 UNK         0.0793 
     99 H99        26.8869   -2.0344   -4.7589 H         1 UNK         0.3024 
    100 H100       24.2296   -2.8049   -4.8429 H         1 UNK         0.1171 
    101 H101       23.4935   -4.7742   -6.1853 H         1 UNK         0.0786 
    102 H102       24.6490   -5.8054   -5.3492 H         1 UNK         0.0786 
    103 H103       23.2926   -5.0984   -4.4729 H         1 UNK         0.0786 
    104 H104       26.5315   -4.1892   -3.6888 H         1 UNK         0.2977 
    105 H105       27.0785    1.2616   -4.3196 H         1 UNK         0.3127 
    106 H106       24.3633    2.2178   -3.5452 H         1 UNK         0.0770 
    107 H107       25.5332   -0.5932   -3.8237 H         1 UNK         0.0814 
    108 H108       23.8940   -0.2198   -3.3134 H         1 UNK         0.0814 
    109 H109       25.2497    0.2768   -2.3182 H         1 UNK         0.0814 
    110 H110       26.1321    1.3419   -6.4712 H         1 UNK         0.2983 
    111 H111       23.6091    1.3275   -8.0085 H         1 UNK         0.0947 
    112 H112       23.9058   -0.9375   -8.8968 H         1 UNK         0.0806 
    113 H113       23.8506   -1.0416   -7.1503 H         1 UNK         0.0806 
    114 H114       25.3945   -1.1533   -7.9964 H         1 UNK         0.0806 
    115 H115       26.5000    2.6678   -7.9507 H         1 UNK         0.3000 
    116 H116       27.6545    3.8555   -9.3311 H         1 UNK         0.0850 
    117 H117       25.7001    3.1522  -11.5796 H         1 UNK         0.0810 
    118 H118       25.5426    4.5047  -10.4591 H         1 UNK         0.0810 
    119 H119       26.8816    4.4493  -11.5938 H         1 UNK         0.0810 
    120 H120       26.9112    0.7060  -10.8003 H         1 UNK         0.3040 
    121 H121       29.2690    0.4567  -12.4147 H         1 UNK         0.0766 
    122 H122       28.6377   -1.9712  -12.4425 H         1 UNK         0.0812 
    123 H123       27.2467   -0.9468  -12.7644 H         1 UNK         0.0812 
    124 H124       27.4507   -1.6866  -11.1768 H         1 UNK         0.0812 
    125 H125       31.3265    0.2292  -11.7549 H         1 UNK         0.3205 
    126 H126       32.0897    0.3813   -9.0921 H         1 UNK         0.0754 
    127 H127       34.4138    0.1617  -10.0095 H         1 UNK         0.0769 
    128 H128       33.4386    1.2316  -10.9984 H         1 UNK         0.0769 
    129 H129       33.7639   -0.4164  -11.5376 H         1 UNK         0.0769 
    130 H130       33.3196   -0.9216   -7.7058 H         1 UNK         0.2981 
    131 H131       32.5119   -3.6550   -7.5203 H         1 UNK         0.0541 
    132 H132       36.0811   -3.8758   -9.4101 H         1 UNK         0.3459 
    133 H133       35.2020   -2.3705   -9.3181 H         1 UNK         0.3459 
    134 H134       33.8970   -3.6780   -5.4317 H         1 UNK         0.0612 
    135 H135       34.5485   -2.1081   -5.8426 H         1 UNK         0.0612 
    136 H136       33.6558   -1.9009   -3.1503 H         1 UNK         0.0624 
    137 H137       33.7803   -0.4248   -4.0857 H         1 UNK         0.0624 
@<TRIPOS>BOND
     1    1    2 1    
     2    1   72 1    
     3    1   73 1    
     4    1   74 1    
     5    2    3 2    
     6    2    4 am   BACKBONE|DICT|INTERRES
     7    4    5 1    
     8    4   75 1    
     9    5    6 1    
    10    5   35 1    
    11    5   76 1    
    12    6    7 1    
    13    6   77 1    
    14    6   78 1    
    15    7    8 1    
    16    8    9 1    
    17    8   79 1    
    18    8   80 1    
    19    9   10 ar   
    20    9   14 ar   
    21   10   11 ar   
    22   10   81 1    
    23   11   12 ar   
    24   11   71 1    
    25   12   13 ar   
    26   12   82 1    
    27   13   14 ar   
    28   13   15 1    
    29   14   83 1    
    30   15   16 1    
    31   15   84 1    
    32   15   85 1    
    33   16   17 1    
    34   17   18 1    
    35   17   86 1    
    36   17   87 1    
    37   18   19 1    
    38   18   37 1    
    39   18   88 1    
    40   19   20 am   BACKBONE|DICT|INTERRES
    41   19   89 1    
    42   20   21 2    
    43   20   22 1    
    44   22   23 1    
    45   22   24 1    
    46   22   90 1    
    47   23   91 1    
    48   23   92 1    
    49   23   93 1    
    50   24   25 am   BACKBONE|DICT|INTERRES
    51   24   94 1    
    52   25   26 2    
    53   25   27 1    
    54   27   28 1    
    55   27   29 1    
    56   27   95 1    
    57   28   96 1    
    58   28   97 1    
    59   28   98 1    
    60   29   30 am   BACKBONE|DICT|INTERRES
    61   29   99 1    
    62   30   31 2    
    63   30   32 1    
    64   32   33 1    
    65   32   34 1    
    66   32  100 1    
    67   33  101 1    
    68   33  102 1    
    69   33  103 1    
    70   34   35 am   BACKBONE|DICT|INTERRES
    71   34  104 1    
    72   35   36 2    
    73   37   38 2    
    74   37   39 am   BACKBONE|DICT|INTERRES
    75   39   40 1    
    76   39  105 1    
    77   40   41 1    
    78   40   42 1    
    79   40  106 1    
    80   41  107 1    
    81   41  108 1    
    82   41  109 1    
    83   42   43 2    
    84   42   44 am   BACKBONE|DICT|INTERRES
    85   44   45 1    
    86   44  110 1    
    87   45   46 1    
    88   45   47 1    
    89   45  111 1    
    90   46  112 1    
    91   46  113 1    
    92   46  114 1    
    93   47   48 2    
    94   47   49 am   BACKBONE|DICT|INTERRES
    95   49   50 1    
    96   49  115 1    
    97   50   51 1    
    98   50   52 1    
    99   50  116 1    
   100   51  117 1    
   101   51  118 1    
   102   51  119 1    
   103   52   53 2    
   104   52   54 am   BACKBONE|DICT|INTERRES
   105   54   55 1    
   106   54  120 1    
   107   55   56 1    
   108   55   57 1    
   109   55  121 1    
   110   56  122 1    
   111   56  123 1    
   112   56  124 1    
   113   57   58 2    
   114   57   59 am   BACKBONE|DICT|INTERRES
   115   59   60 1    
   116   59  125 1    
   117   60   61 1    
   118   60   62 1    
   119   60  126 1    
   120   61  127 1    
   121   61  128 1    
   122   61  129 1    
   123   62   63 2    
   124   62   64 am   BACKBONE|DICT|INTERRES
   125   64   65 1    
   126   64  130 1    
   127   65   66 1    
   128   65   69 1    
   129   65  131 1    
   130   66   67 am   BACKBONE|DICT|INTERRES
   131   66   68 2    
   132   67  132 1    
   133   67  133 1    
   134   69   70 1    
   135   69  134 1    
   136   69  135 1    
   137   70   71 1    
   138   71  136 1    
   139   71  137 1    
@<TRIPOS>SUBSTRUCTURE
     1 UNK         1 GROUP             0       ****    0 ROOT    
