@<TRIPOS>MOLECULE
3R137
137   139    1
SMALL
USER_CHARGES


@<TRIPOS>ATOM
      1 CA         27.8332   -9.1710   -1.1329 C.3       0 UNK        -0.2020 
      2 C          27.4093   -7.8209   -0.5754 C.2       0 UNK         0.4855 
      3 O          26.5737   -7.7653    0.3268 O.2       0 UNK        -0.5197 
      4 N          27.9759   -6.7303   -1.1076 N.am      1 UNK        -0.4892 
      5 CA         27.6864   -5.3457   -0.7081 C.3       1 UNK         0.0835 
      6 C6         28.8643   -4.3914   -1.0320 C.3       12 UNK        -0.0855 
      7 S7         29.4766   -4.5032   -2.7497 S.3       12 UNK        -0.2931 
      8 C8         28.7951   -2.9895   -3.4869 C.3       12 UNK         0.0378 
      9 C9         29.5442   -1.7364   -3.0564 C.ar      12 UNK        -0.0802 
     10 C10        30.7405   -1.3843   -3.6882 C.ar      12 UNK        -0.0944 
     11 C11        31.3811   -0.1822   -3.3771 C.ar      12 UNK        -0.0787 
     12 C12        30.8538    0.6412   -2.3798 C.ar      12 UNK        -0.0862 
     13 C13        29.6710    0.2891   -1.7243 C.ar      12 UNK        -0.0733 
     14 C14        29.0140   -0.8951   -2.0736 C.ar      12 UNK        -0.0832 
     15 C15        29.0871    1.2030   -0.6594 C.3       12 UNK         0.0240 
     16 S16        27.6376    2.1113   -1.2770 S.3       12 UNK        -0.2522 
     17 C17        28.3672    3.1844   -2.5667 C.3       12 UNK        -0.0967 
     18 CA         28.1603    2.6629   -4.0194 C.3       5 UNK         0.0660 
     19 N          26.7647    2.2586   -4.2378 N.am      5 UNK        -0.4015 
     20 C          26.2792    1.4779   -5.2096 C.2       4 UNK         0.4946 
     21 O          26.9125    1.1250   -6.2091 O.2       4 UNK        -0.5353 
     22 CA         24.8195    1.0287   -5.0387 C.3       4 UNK         0.0277 
     23 CB         23.8694    1.9229   -5.8523 C.3       4 UNK        -0.1981 
     24 N          24.6524   -0.3722   -5.4335 N.am      4 UNK        -0.4209 
     25 C          25.1550   -1.4061   -4.7437 C.2       3 UNK         0.4942 
     26 O          25.7471   -1.2883   -3.6686 O.2       3 UNK        -0.5208 
     27 CA         24.9832   -2.7974   -5.3783 C.3       3 UNK         0.0250 
     28 CB         26.0448   -3.0425   -6.4629 C.3       3 UNK        -0.1990 
     29 N          25.0545   -3.8726   -4.3834 N.am      3 UNK        -0.4232 
     30 C          24.0679   -4.1681   -3.5272 C.2       2 UNK         0.4993 
     31 O          22.9859   -3.5789   -3.5019 O.2       2 UNK        -0.5286 
     32 CA         24.2956   -5.3422   -2.5611 C.3       2 UNK         0.0209 
     33 CB         23.7590   -6.6472   -3.1725 C.3       2 UNK        -0.1931 
     34 N          25.6911   -5.5448   -2.1588 N.am      2 UNK        -0.4546 
     35 C          26.3235   -4.8215   -1.2224 C.2       1 UNK         0.5154 
     36 O          25.8473   -3.8024   -0.7209 O.2       1 UNK        -0.5181 
     37 C          28.6831    3.6768   -5.0687 C.2       5 UNK         0.5014 
     38 O          29.2434    4.7118   -4.6996 O.2       5 UNK        -0.5248 
     39 N          28.4720    3.3860   -6.3542 N.am      6 UNK        -0.4434 
     40 CA         28.8268    4.2144   -7.5008 C.3       6 UNK         0.0363 
     41 CB         27.8023    5.3603   -7.6660 C.3       6 UNK        -0.1936 
     42 C          28.9660    3.3114   -8.7364 C.2       6 UNK         0.5081 
     43 O          29.4793    2.1971   -8.6196 O.2       6 UNK        -0.5248 
     44 N          28.5059    3.7895   -9.9006 N.am      7 UNK        -0.4718 
     45 CA         28.6101    3.1256  -11.2061 C.3       7 UNK         0.0273 
     46 CB         28.1112    4.0878  -12.2965 C.3       7 UNK        -0.1935 
     47 C          27.8853    1.7705  -11.3154 C.2       7 UNK         0.5018 
     48 O          28.2417    0.9791  -12.1883 O.2       7 UNK        -0.5186 
     49 N          26.9009    1.5186  -10.4392 N.am      8 UNK        -0.4240 
     50 CA         26.2127    0.2298  -10.3172 C.3       8 UNK         0.0235 
     51 CB         24.9931    0.3738   -9.3942 C.3       8 UNK        -0.2000 
     52 C          27.1516   -0.8736   -9.8027 C.2       8 UNK         0.4941 
     53 O          27.1781   -1.9637  -10.3747 O.2       8 UNK        -0.5273 
     54 N          27.9163   -0.5583   -8.7485 N.am      9 UNK        -0.4262 
     55 CA         28.9815   -1.4080   -8.2198 C.3       9 UNK         0.0264 
     56 CB         29.3068   -0.9759   -6.7854 C.3       9 UNK        -0.1955 
     57 C          30.2517   -1.3569   -9.0840 C.2       9 UNK         0.5031 
     58 O          30.9290   -2.3779   -9.2097 O.2       9 UNK        -0.5390 
     59 N          30.5423   -0.1735   -9.6471 N.am      10 UNK        -0.4204 
     60 CA         31.7204    0.1808  -10.4443 C.3       10 UNK         0.0237 
     61 CB         31.7794   -0.6302  -11.7565 C.3       10 UNK        -0.1985 
     62 C          33.0039    0.0884   -9.6013 C.2       10 UNK         0.4970 
     63 O          33.9065   -0.6883   -9.9194 O.2       10 UNK        -0.4914 
     64 N          33.0344    0.8764   -8.5184 N.am      11 UNK        -0.4285 
     65 CA         34.1127    0.9131   -7.5147 C.3       11 UNK         0.1007 
     66 C          35.5067    1.3658   -8.0416 C.2       11 UNK         0.5703 
     67 N          35.6006    2.0410   -9.1813 N.am      11 UNK        -0.7361 
     68 O          36.5206    1.0979   -7.4010 O.2       11 UNK        -0.4986 
     69 C69        33.7165    1.7586   -6.2742 C.3       12 UNK        -0.0947 
     70 S70        32.1041    1.2996   -5.5594 S.3       12 UNK        -0.2240 
     71 C71        32.6080    0.2585   -4.1565 C.3       12 UNK         0.0194 
     72 H72        28.5880   -9.0721   -1.9126 H         1 UNK         0.0906 
     73 H73        28.2465   -9.7915   -0.3388 H         1 UNK         0.0906 
     74 H74        26.9734   -9.6884   -1.5569 H         1 UNK         0.0906 
     75 H75        28.6621   -6.8246   -1.8449 H         1 UNK         0.3140 
     76 H76        27.5858   -5.3453    0.3799 H         1 UNK         0.1085 
     77 H77        29.7047   -4.6390   -0.3819 H         1 UNK         0.0836 
     78 H78        28.6105   -3.3614   -0.7804 H         1 UNK         0.0836 
     79 H79        27.7361   -2.9120   -3.2415 H         1 UNK         0.0731 
     80 H80        28.8519   -3.0831   -4.5711 H         1 UNK         0.0731 
     81 H81        31.1529   -2.0291   -4.4513 H         1 UNK         0.1312 
     82 H82        31.3491    1.5716   -2.1377 H         1 UNK         0.1406 
     83 H83        28.0758   -1.1468   -1.5969 H         1 UNK         0.1631 
     84 H84        29.8338    1.9114   -0.2973 H         1 UNK         0.0717 
     85 H85        28.7883    0.6065    0.2037 H         1 UNK         0.0717 
     86 H86        27.9108    4.1697   -2.4517 H         1 UNK         0.0934 
     87 H87        29.4297    3.3256   -2.3605 H         1 UNK         0.0934 
     88 H88        28.7702    1.7648   -4.1393 H         1 UNK         0.0739 
     89 H89        26.1443    2.5036   -3.4802 H         1 UNK         0.3093 
     90 H90        24.5453    1.1109   -3.9844 H         1 UNK         0.0818 
     91 H91        23.9353    2.9601   -5.5212 H         1 UNK         0.0819 
     92 H92        24.1015    1.9115   -6.9163 H         1 UNK         0.0819 
     93 H93        22.8313    1.6127   -5.7318 H         1 UNK         0.0819 
     94 H94        24.2077   -0.5437   -6.3226 H         1 UNK         0.3041 
     95 H95        23.9991   -2.8333   -5.8511 H         1 UNK         0.0784 
     96 H96        26.0262   -2.2550   -7.2171 H         1 UNK         0.0793 
     97 H97        27.0504   -3.0698   -6.0470 H         1 UNK         0.0793 
     98 H98        25.8722   -3.9863   -6.9804 H         1 UNK         0.0793 
     99 H99        25.9198   -4.3864   -4.3162 H         1 UNK         0.3024 
    100 H100       23.7120   -5.1292   -1.6621 H         1 UNK         0.1171 
    101 H101       24.3119   -6.9322   -4.0682 H         1 UNK         0.0786 
    102 H102       23.8197   -7.4724   -2.4624 H         1 UNK         0.0786 
    103 H103       22.7106   -6.5437   -3.4561 H         1 UNK         0.0786 
    104 H104       26.1576   -6.3683   -2.5104 H         1 UNK         0.2977 
    105 H105       28.0279    2.4919   -6.5654 H         1 UNK         0.3127 
    106 H106       29.8131    4.6479   -7.3237 H         1 UNK         0.0770 
    107 H107       26.8050    4.9817   -7.8937 H         1 UNK         0.0814 
    108 H108       28.0933    6.0481   -8.4606 H         1 UNK         0.0814 
    109 H109       27.7260    5.9559   -6.7562 H         1 UNK         0.0814 
    110 H110       28.0871    4.7086   -9.9004 H         1 UNK         0.2983 
    111 H111       29.6693    2.9287  -11.3857 H         1 UNK         0.0947 
    112 H112       28.2043    3.6394  -13.2869 H         1 UNK         0.0806 
    113 H113       28.6902    5.0116  -12.3079 H         1 UNK         0.0806 
    114 H114       27.0616    4.3490  -12.1551 H         1 UNK         0.0806 
    115 H115       26.6671    2.2346   -9.7676 H         1 UNK         0.3000 
    116 H116       25.8607   -0.0612  -11.3094 H         1 UNK         0.0850 
    117 H117       25.2927    0.6333   -8.3797 H         1 UNK         0.0810 
    118 H118       24.4351   -0.5619   -9.3395 H         1 UNK         0.0810 
    119 H119       24.3068    1.1409   -9.7533 H         1 UNK         0.0810 
    120 H120       27.8071    0.3487   -8.3127 H         1 UNK         0.3040 
    121 H121       28.6304   -2.4419   -8.1963 H         1 UNK         0.0766 
    122 H122       29.6065    0.0714   -6.7342 H         1 UNK         0.0812 
    123 H123       28.4543   -1.1068   -6.1197 H         1 UNK         0.0812 
    124 H124       30.1290   -1.5710   -6.3927 H         1 UNK         0.0812 
    125 H125       29.9589    0.6172   -9.3752 H         1 UNK         0.3205 
    126 H126       31.6009    1.2305  -10.7167 H         1 UNK         0.0754 
    127 H127       32.6006   -0.2881  -12.3873 H         1 UNK         0.0769 
    128 H128       30.8592   -0.5169  -12.3302 H         1 UNK         0.0769 
    129 H129       31.9323   -1.6944  -11.5755 H         1 UNK         0.0769 
    130 H130       32.2351    1.4607   -8.3190 H         1 UNK         0.2981 
    131 H131       34.2442   -0.1161   -7.1755 H         1 UNK         0.0541 
    132 H132       36.5086    2.3259   -9.5128 H         1 UNK         0.3459 
    133 H133       34.7753    2.2648   -9.7129 H         1 UNK         0.3459 
    134 H134       33.6622    2.8152   -6.5432 H         1 UNK         0.0612 
    135 H135       34.4809    1.6852   -5.4982 H         1 UNK         0.0612 
    136 H136       33.1613   -0.6070   -4.5244 H         1 UNK         0.0624 
    137 H137       33.2856    0.8159   -3.5080 H         1 UNK         0.0624 
@<TRIPOS>BOND
     1    1    2 1    
     2    1   72 1    
     3    1   73 1    
     4    1   74 1    
     5    2    3 2    
     6    2    4 am   BACKBONE|DICT|INTERRES
     7    4    5 1    
     8    4   75 1    
     9    5    6 1    
    10    5   35 1    
    11    5   76 1    
    12    6    7 1    
    13    6   77 1    
    14    6   78 1    
    15    7    8 1    
    16    8    9 1    
    17    8   79 1    
    18    8   80 1    
    19    9   10 ar   
    20    9   14 ar   
    21   10   11 ar   
    22   10   81 1    
    23   11   12 ar   
    24   11   71 1    
    25   12   13 ar   
    26   12   82 1    
    27   13   14 ar   
    28   13   15 1    
    29   14   83 1    
    30   15   16 1    
    31   15   84 1    
    32   15   85 1    
    33   16   17 1    
    34   17   18 1    
    35   17   86 1    
    36   17   87 1    
    37   18   19 1    
    38   18   37 1    
    39   18   88 1    
    40   19   20 am   BACKBONE|DICT|INTERRES
    41   19   89 1    
    42   20   21 2    
    43   20   22 1    
    44   22   23 1    
    45   22   24 1    
    46   22   90 1    
    47   23   91 1    
    48   23   92 1    
    49   23   93 1    
    50   24   25 am   BACKBONE|DICT|INTERRES
    51   24   94 1    
    52   25   26 2    
    53   25   27 1    
    54   27   28 1    
    55   27   29 1    
    56   27   95 1    
    57   28   96 1    
    58   28   97 1    
    59   28   98 1    
    60   29   30 am   BACKBONE|DICT|INTERRES
    61   29   99 1    
    62   30   31 2    
    63   30   32 1    
    64   32   33 1    
    65   32   34 1    
    66   32  100 1    
    67   33  101 1    
    68   33  102 1    
    69   33  103 1    
    70   34   35 am   BACKBONE|DICT|INTERRES
    71   34  104 1    
    72   35   36 2    
    73   37   38 2    
    74   37   39 am   BACKBONE|DICT|INTERRES
    75   39   40 1    
    76   39  105 1    
    77   40   41 1    
    78   40   42 1    
    79   40  106 1    
    80   41  107 1    
    81   41  108 1    
    82   41  109 1    
    83   42   43 2    
    84   42   44 am   BACKBONE|DICT|INTERRES
    85   44   45 1    
    86   44  110 1    
    87   45   46 1    
    88   45   47 1    
    89   45  111 1    
    90   46  112 1    
    91   46  113 1    
    92   46  114 1    
    93   47   48 2    
    94   47   49 am   BACKBONE|DICT|INTERRES
    95   49   50 1    
    96   49  115 1    
    97   50   51 1    
    98   50   52 1    
    99   50  116 1    
   100   51  117 1    
   101   51  118 1    
   102   51  119 1    
   103   52   53 2    
   104   52   54 am   BACKBONE|DICT|INTERRES
   105   54   55 1    
   106   54  120 1    
   107   55   56 1    
   108   55   57 1    
   109   55  121 1    
   110   56  122 1    
   111   56  123 1    
   112   56  124 1    
   113   57   58 2    
   114   57   59 am   BACKBONE|DICT|INTERRES
   115   59   60 1    
   116   59  125 1    
   117   60   61 1    
   118   60   62 1    
   119   60  126 1    
   120   61  127 1    
   121   61  128 1    
   122   61  129 1    
   123   62   63 2    
   124   62   64 am   BACKBONE|DICT|INTERRES
   125   64   65 1    
   126   64  130 1    
   127   65   66 1    
   128   65   69 1    
   129   65  131 1    
   130   66   67 am   BACKBONE|DICT|INTERRES
   131   66   68 2    
   132   67  132 1    
   133   67  133 1    
   134   69   70 1    
   135   69  134 1    
   136   69  135 1    
   137   70   71 1    
   138   71  136 1    
   139   71  137 1    
@<TRIPOS>SUBSTRUCTURE
     1 UNK         1 GROUP             0       ****    0 ROOT    
