@<TRIPOS>MOLECULE
3R137
137   139    1
SMALL
USER_CHARGES


@<TRIPOS>ATOM
      1 CA         30.8153   -0.1260    0.2966 C.3       0 UNK        -0.2020 
      2 C          30.0690   -0.4552   -0.9870 C.2       0 UNK         0.4855 
      3 O          30.2690    0.2157   -1.9964 O.2       0 UNK        -0.5197 
      4 N          29.2052   -1.4785   -0.9493 N.am      1 UNK        -0.4892 
      5 CA         28.4372   -2.0043   -2.0913 C.3       1 UNK         0.0835 
      6 C6         27.8209   -3.3948   -1.7727 C.3       12 UNK        -0.0855 
      7 S7         28.9987   -4.5438   -0.9705 S.3       12 UNK        -0.2931 
      8 C8         29.3186   -5.7814   -2.2709 C.3       12 UNK         0.0378 
      9 C9         29.8937   -5.1992   -3.5588 C.ar      12 UNK        -0.0802 
     10 C10        30.9003   -4.2266   -3.5373 C.ar      12 UNK        -0.0944 
     11 C11        31.4052   -3.6972   -4.7290 C.ar      12 UNK        -0.0787 
     12 C12        30.9254   -4.1745   -5.9519 C.ar      12 UNK        -0.0862 
     13 C13        29.9225   -5.1475   -5.9866 C.ar      12 UNK        -0.0733 
     14 C14        29.4145   -5.6572   -4.7887 C.ar      12 UNK        -0.0832 
     15 C15        29.3514   -5.6220   -7.3146 C.3       12 UNK         0.0240 
     16 S16        28.4195   -4.3139   -8.1749 S.3       12 UNK        -0.2522 
     17 C17        27.3076   -3.6855   -6.8662 C.3       12 UNK        -0.0967 
     18 CA         26.5029   -2.4442   -7.3189 C.3       5 UNK         0.0660 
     19 N          25.3259   -2.2269   -6.4693 N.am      5 UNK        -0.4015 
     20 C          24.3958   -1.2775   -6.6497 C.2       4 UNK         0.4946 
     21 O          24.5095   -0.3299   -7.4269 O.2       4 UNK        -0.5353 
     22 CA         23.1023   -1.4380   -5.8463 C.3       4 UNK         0.0277 
     23 CB         22.3129   -2.6712   -6.3395 C.3       4 UNK        -0.1981 
     24 N          23.3825   -1.5065   -4.4114 N.am      4 UNK        -0.4209 
     25 C          22.4535   -1.4346   -3.4462 C.2       3 UNK         0.4942 
     26 O          21.2415   -1.3737   -3.6578 O.2       3 UNK        -0.5208 
     27 CA         22.9514   -1.4042   -1.9893 C.3       3 UNK         0.0250 
     28 CB         23.0215   -2.8290   -1.4157 C.3       3 UNK        -0.1990 
     29 N          24.2531   -0.7539   -1.8244 N.am      3 UNK        -0.4232 
     30 C          24.5283    0.5238   -2.1234 C.2       2 UNK         0.4993 
     31 O          23.6858    1.3288   -2.5214 O.2       2 UNK        -0.5286 
     32 CA         25.9847    0.9918   -1.9598 C.3       2 UNK         0.0209 
     33 CB         26.0991    2.0253   -0.8264 C.3       2 UNK        -0.1931 
     34 N          26.9551   -0.0806   -1.7151 N.am      2 UNK        -0.4546 
     35 C          27.3352   -1.0348   -2.5784 C.2       1 UNK         0.5154 
     36 O          26.8391   -1.1772   -3.6996 O.2       1 UNK        -0.5181 
     37 C          27.4078   -1.2073   -7.4959 C.2       5 UNK         0.5014 
     38 O          27.8425   -0.9456   -8.6198 O.2       5 UNK        -0.5248 
     39 N          27.6457   -0.4408   -6.4202 N.am      6 UNK        -0.4434 
     40 CA         28.5066    0.7501   -6.4348 C.3       6 UNK         0.0363 
     41 CB         28.6534    1.3174   -5.0184 C.3       6 UNK        -0.1936 
     42 C          28.0670    1.8605   -7.4058 C.2       6 UNK         0.5081 
     43 O          28.9129    2.6566   -7.8089 O.2       6 UNK        -0.5248 
     44 N          26.7891    1.8786   -7.8150 N.am      7 UNK        -0.4718 
     45 CA         26.2780    2.7777   -8.8554 C.3       7 UNK         0.0273 
     46 CB         24.7455    2.6797   -8.9095 C.3       7 UNK        -0.1935 
     47 C          26.8849    2.5118  -10.2480 C.2       7 UNK         0.5018 
     48 O          26.9193    3.4312  -11.0670 O.2       7 UNK        -0.5186 
     49 N          27.3557    1.2794  -10.4858 N.am      8 UNK        -0.4240 
     50 CA         28.0552    0.8681  -11.7023 C.3       8 UNK         0.0235 
     51 CB         27.3914   -0.4012  -12.2625 C.3       8 UNK        -0.2000 
     52 C          29.5454    0.6163  -11.4279 C.2       8 UNK         0.4941 
     53 O          30.3835    1.0378  -12.2254 O.2       8 UNK        -0.5273 
     54 N          29.8535   -0.0766  -10.3226 N.am      9 UNK        -0.4262 
     55 CA         31.2007   -0.5345   -9.9763 C.3       9 UNK         0.0264 
     56 CB         31.0888   -1.7300   -9.0153 C.3       9 UNK        -0.1955 
     57 C          32.1094    0.5445   -9.3668 C.2       9 UNK         0.5031 
     58 O          33.3212    0.3257   -9.3186 O.2       9 UNK        -0.5390 
     59 N          31.5353    1.6502   -8.8672 N.am      10 UNK        -0.4204 
     60 CA         32.1691    2.7610   -8.1357 C.3       10 UNK         0.0237 
     61 CB         33.2549    3.4628   -8.9759 C.3       10 UNK        -0.1985 
     62 C          32.6975    2.3790   -6.7389 C.2       10 UNK         0.4970 
     63 O          32.4621    3.1267   -5.7888 O.2       10 UNK        -0.4914 
     64 N          33.3788    1.2312   -6.6407 N.am      11 UNK        -0.4285 
     65 CA         33.9775    0.6502   -5.4294 C.3       11 UNK         0.1007 
     66 C          35.1103    1.5367   -4.8233 C.2       11 UNK         0.5703 
     67 N          35.4632    1.3567   -3.5567 N.am      11 UNK        -0.7361 
     68 O          35.7229    2.3540   -5.5093 O.2       11 UNK        -0.4986 
     69 C69        32.9102    0.1818   -4.3947 C.3       12 UNK        -0.0947 
     70 S70        31.6890   -0.9836   -5.0892 S.3       12 UNK        -0.2240 
     71 C71        32.4462   -2.5899   -4.6927 C.3       12 UNK         0.0194 
     72 H72        31.8900   -0.2030    0.1337 H         1 UNK         0.0906 
     73 H73        30.5906    0.8931    0.6101 H         1 UNK         0.0906 
     74 H74        30.5467   -0.7993    1.1103 H         1 UNK         0.0906 
     75 H75        29.1107   -2.0127   -0.0962 H         1 UNK         0.3140 
     76 H76        29.1325   -2.1189   -2.9258 H         1 UNK         0.1085 
     77 H77        26.9690   -3.2910   -1.0976 H         1 UNK         0.0836 
     78 H78        27.4277   -3.8522   -2.6830 H         1 UNK         0.0836 
     79 H79        30.0193   -6.5215   -1.8826 H         1 UNK         0.0731 
     80 H80        28.3875   -6.3145   -2.4700 H         1 UNK         0.0731 
     81 H81        31.2737   -3.8625   -2.5899 H         1 UNK         0.1312 
     82 H82        31.3060   -3.7631   -6.8764 H         1 UNK         0.1406 
     83 H83        28.6349   -6.4067   -4.8151 H         1 UNK         0.1631 
     84 H84        30.1649   -5.9595   -7.9582 H         1 UNK         0.0717 
     85 H85        28.6963   -6.4827   -7.1715 H         1 UNK         0.0717 
     86 H86        26.6332   -4.5009   -6.6002 H         1 UNK         0.0934 
     87 H87        27.8748   -3.4521   -5.9631 H         1 UNK         0.0934 
     88 H88        26.0961   -2.6633   -8.3088 H         1 UNK         0.0739 
     89 H89        25.1363   -2.9505   -5.7923 H         1 UNK         0.3093 
     90 H90        22.4978   -0.5465   -6.0280 H         1 UNK         0.0818 
     91 H91        21.3018   -2.6918   -5.9340 H         1 UNK         0.0819 
     92 H92        22.2143   -2.6640   -7.4261 H         1 UNK         0.0819 
     93 H93        22.8002   -3.6060   -6.0614 H         1 UNK         0.0819 
     94 H94        24.3582   -1.4904   -4.1416 H         1 UNK         0.3041 
     95 H95        22.2235   -0.8346   -1.4074 H         1 UNK         0.0784 
     96 H96        22.0577   -3.3325   -1.5045 H         1 UNK         0.0793 
     97 H97        23.7577   -3.4407   -1.9388 H         1 UNK         0.0793 
     98 H98        23.2823   -2.8193   -0.3572 H         1 UNK         0.0793 
     99 H99        25.0092   -1.3276   -1.4828 H         1 UNK         0.3024 
    100 H100       26.2543    1.4824   -2.8953 H         1 UNK         0.1171 
    101 H101       25.8499    1.5908    0.1425 H         1 UNK         0.0786 
    102 H102       27.1077    2.4345   -0.7631 H         1 UNK         0.0786 
    103 H103       25.4225    2.8654   -0.9904 H         1 UNK         0.0786 
    104 H104       27.4303   -0.0590   -0.8241 H         1 UNK         0.2977 
    105 H105       27.2527   -0.7145   -5.5225 H         1 UNK         0.3127 
    106 H106       29.4948    0.4216   -6.7626 H         1 UNK         0.0770 
    107 H107       29.0596    0.5727   -4.3359 H         1 UNK         0.0814 
    108 H108       29.3408    2.1647   -5.0064 H         1 UNK         0.0814 
    109 H109       27.6991    1.6639   -4.6262 H         1 UNK         0.0814 
    110 H110       26.1524    1.1662   -7.4744 H         1 UNK         0.2983 
    111 H111       26.5460    3.7986   -8.5742 H         1 UNK         0.0947 
    112 H112       24.3344    3.3948   -9.6234 H         1 UNK         0.0806 
    113 H113       24.2973    2.8954   -7.9394 H         1 UNK         0.0806 
    114 H114       24.4163    1.6869   -9.2182 H         1 UNK         0.0806 
    115 H115       27.3019    0.5910   -9.7410 H         1 UNK         0.3000 
    116 H116       27.9878    1.6475  -12.4644 H         1 UNK         0.0850 
    117 H117       27.8985   -0.7410  -13.1667 H         1 UNK         0.0810 
    118 H118       26.3495   -0.2177  -12.5250 H         1 UNK         0.0810 
    119 H119       27.4149   -1.2230  -11.5452 H         1 UNK         0.0810 
    120 H120       29.0990   -0.4110   -9.7227 H         1 UNK         0.3040 
    121 H121       31.6881   -0.8838  -10.8892 H         1 UNK         0.0766 
    122 H122       30.5286   -2.5478   -9.4678 H         1 UNK         0.0812 
    123 H123       30.5904   -1.4578   -8.0843 H         1 UNK         0.0812 
    124 H124       32.0739   -2.1195   -8.7547 H         1 UNK         0.0812 
    125 H125       30.5254    1.7191   -8.9168 H         1 UNK         0.3205 
    126 H126       31.3764    3.4923   -7.9737 H         1 UNK         0.0754 
    127 H127       33.6203    4.3551   -8.4660 H         1 UNK         0.0769 
    128 H128       32.8643    3.7786   -9.9434 H         1 UNK         0.0769 
    129 H129       34.1175    2.8207   -9.1550 H         1 UNK         0.0769 
    130 H130       33.5427    0.7239   -7.5060 H         1 UNK         0.2981 
    131 H131       34.4962   -0.2427   -5.7791 H         1 UNK         0.0541 
    132 H132       36.2105    1.9150   -3.1747 H         1 UNK         0.3459 
    133 H133       34.9947    0.6809   -2.9750 H         1 UNK         0.3459 
    134 H134       32.3631    1.0395   -4.0002 H         1 UNK         0.0612 
    135 H135       33.3775   -0.2927   -3.5318 H         1 UNK         0.0612 
    136 H136       32.9115   -2.5481   -3.7070 H         1 UNK         0.0624 
    137 H137       33.2435   -2.8000   -5.4070 H         1 UNK         0.0624 
@<TRIPOS>BOND
     1    1    2 1    
     2    1   72 1    
     3    1   73 1    
     4    1   74 1    
     5    2    3 2    
     6    2    4 am   BACKBONE|DICT|INTERRES
     7    4    5 1    
     8    4   75 1    
     9    5    6 1    
    10    5   35 1    
    11    5   76 1    
    12    6    7 1    
    13    6   77 1    
    14    6   78 1    
    15    7    8 1    
    16    8    9 1    
    17    8   79 1    
    18    8   80 1    
    19    9   10 ar   
    20    9   14 ar   
    21   10   11 ar   
    22   10   81 1    
    23   11   12 ar   
    24   11   71 1    
    25   12   13 ar   
    26   12   82 1    
    27   13   14 ar   
    28   13   15 1    
    29   14   83 1    
    30   15   16 1    
    31   15   84 1    
    32   15   85 1    
    33   16   17 1    
    34   17   18 1    
    35   17   86 1    
    36   17   87 1    
    37   18   19 1    
    38   18   37 1    
    39   18   88 1    
    40   19   20 am   BACKBONE|DICT|INTERRES
    41   19   89 1    
    42   20   21 2    
    43   20   22 1    
    44   22   23 1    
    45   22   24 1    
    46   22   90 1    
    47   23   91 1    
    48   23   92 1    
    49   23   93 1    
    50   24   25 am   BACKBONE|DICT|INTERRES
    51   24   94 1    
    52   25   26 2    
    53   25   27 1    
    54   27   28 1    
    55   27   29 1    
    56   27   95 1    
    57   28   96 1    
    58   28   97 1    
    59   28   98 1    
    60   29   30 am   BACKBONE|DICT|INTERRES
    61   29   99 1    
    62   30   31 2    
    63   30   32 1    
    64   32   33 1    
    65   32   34 1    
    66   32  100 1    
    67   33  101 1    
    68   33  102 1    
    69   33  103 1    
    70   34   35 am   BACKBONE|DICT|INTERRES
    71   34  104 1    
    72   35   36 2    
    73   37   38 2    
    74   37   39 am   BACKBONE|DICT|INTERRES
    75   39   40 1    
    76   39  105 1    
    77   40   41 1    
    78   40   42 1    
    79   40  106 1    
    80   41  107 1    
    81   41  108 1    
    82   41  109 1    
    83   42   43 2    
    84   42   44 am   BACKBONE|DICT|INTERRES
    85   44   45 1    
    86   44  110 1    
    87   45   46 1    
    88   45   47 1    
    89   45  111 1    
    90   46  112 1    
    91   46  113 1    
    92   46  114 1    
    93   47   48 2    
    94   47   49 am   BACKBONE|DICT|INTERRES
    95   49   50 1    
    96   49  115 1    
    97   50   51 1    
    98   50   52 1    
    99   50  116 1    
   100   51  117 1    
   101   51  118 1    
   102   51  119 1    
   103   52   53 2    
   104   52   54 am   BACKBONE|DICT|INTERRES
   105   54   55 1    
   106   54  120 1    
   107   55   56 1    
   108   55   57 1    
   109   55  121 1    
   110   56  122 1    
   111   56  123 1    
   112   56  124 1    
   113   57   58 2    
   114   57   59 am   BACKBONE|DICT|INTERRES
   115   59   60 1    
   116   59  125 1    
   117   60   61 1    
   118   60   62 1    
   119   60  126 1    
   120   61  127 1    
   121   61  128 1    
   122   61  129 1    
   123   62   63 2    
   124   62   64 am   BACKBONE|DICT|INTERRES
   125   64   65 1    
   126   64  130 1    
   127   65   66 1    
   128   65   69 1    
   129   65  131 1    
   130   66   67 am   BACKBONE|DICT|INTERRES
   131   66   68 2    
   132   67  132 1    
   133   67  133 1    
   134   69   70 1    
   135   69  134 1    
   136   69  135 1    
   137   70   71 1    
   138   71  136 1    
   139   71  137 1    
@<TRIPOS>SUBSTRUCTURE
     1 UNK         1 GROUP             0       ****    0 ROOT    
