@<TRIPOS>MOLECULE
3R137
137   139    1
SMALL
USER_CHARGES


@<TRIPOS>ATOM
      1 CA         29.5455   -3.2152    2.9818 C.3       0 UNK        -0.2020 
      2 C          29.0739   -2.9037    1.5694 C.2       0 UNK         0.4855 
      3 O          29.1811   -1.7598    1.1260 O.2       0 UNK        -0.5197 
      4 N          28.5634   -3.9140    0.8556 N.am      1 UNK        -0.4892 
      5 CA         28.0198   -3.7856   -0.5006 C.3       1 UNK         0.0835 
      6 C6         27.8968   -5.1621   -1.2057 C.3       12 UNK        -0.0855 
      7 S7         29.3999   -6.2092   -1.2228 S.3       12 UNK        -0.2931 
      8 C8         30.7807   -5.0501   -1.5367 C.3       12 UNK         0.0378 
      9 C9         30.6450   -4.2210   -2.8126 C.ar      12 UNK        -0.0802 
     10 C10        31.1440   -2.9136   -2.8323 C.ar      12 UNK        -0.0944 
     11 C11        31.0355   -2.1205   -3.9789 C.ar      12 UNK        -0.0787 
     12 C12        30.4011   -2.6458   -5.1088 C.ar      12 UNK        -0.0862 
     13 C13        29.9069   -3.9523   -5.1114 C.ar      12 UNK        -0.0733 
     14 C14        30.0484   -4.7410   -3.9676 C.ar      12 UNK        -0.0832 
     15 C15        29.2266   -4.5107   -6.3538 C.3       12 UNK         0.0240 
     16 S16        27.4620   -4.8952   -6.0959 S.3       12 UNK        -0.2522 
     17 C17        26.7662   -3.3234   -5.4847 C.3       12 UNK        -0.0967 
     18 CA         26.4401   -2.3101   -6.6163 C.3       5 UNK         0.0660 
     19 N          25.1826   -1.5995   -6.3763 N.am      5 UNK        -0.4015 
     20 C          24.5550   -0.8214   -7.2701 C.2       4 UNK         0.4946 
     21 O          24.9303   -0.6636   -8.4320 O.2       4 UNK        -0.5353 
     22 CA         23.3222   -0.0543   -6.7627 C.3       4 UNK         0.0277 
     23 CB         22.0657   -0.9365   -6.8344 C.3       4 UNK        -0.1981 
     24 N          23.4976    0.4482   -5.3963 N.am      4 UNK        -0.4209 
     25 C          24.3833    1.3951   -5.0534 C.2       3 UNK         0.4942 
     26 O          25.1036    1.9809   -5.8605 O.2       3 UNK        -0.5208 
     27 CA         24.5228    1.7093   -3.5541 C.3       3 UNK         0.0250 
     28 CB         23.4687    2.7397   -3.1189 C.3       3 UNK        -0.1990 
     29 N          24.4471    0.5274   -2.6861 N.am      3 UNK        -0.4232 
     30 C          25.2856   -0.5167   -2.7378 C.2       2 UNK         0.4993 
     31 O          26.1861   -0.6389   -3.5726 O.2       2 UNK        -0.5286 
     32 CA         25.0575   -1.6356   -1.7192 C.3       2 UNK         0.0209 
     33 CB         23.9449   -2.5891   -2.1945 C.3       2 UNK        -0.1931 
     34 N          26.3091   -2.3711   -1.5523 N.am      2 UNK        -0.4546 
     35 C          26.6446   -3.0837   -0.4721 C.2       1 UNK         0.5154 
     36 O          25.9007   -3.2297    0.5025 O.2       1 UNK        -0.5181 
     37 C          27.5888   -1.3074   -6.8259 C.2       5 UNK         0.5014 
     38 O          28.3319   -1.4280   -7.7993 O.2       5 UNK        -0.5248 
     39 N          27.6870   -0.3175   -5.9257 N.am      6 UNK        -0.4434 
     40 CA         28.6661    0.7684   -5.9659 C.3       6 UNK         0.0363 
     41 CB         28.5036    1.6633   -4.7274 C.3       6 UNK        -0.1936 
     42 C          28.5946    1.5997   -7.2525 C.2       6 UNK         0.5081 
     43 O          29.6402    1.8969   -7.8290 O.2       6 UNK        -0.5248 
     44 N          27.3723    1.9223   -7.6963 N.am      7 UNK        -0.4718 
     45 CA         27.1021    2.6045   -8.9620 C.3       7 UNK         0.0273 
     46 CB         25.6204    3.0080   -9.0237 C.3       7 UNK        -0.1935 
     47 C          27.4891    1.7627  -10.1892 C.2       7 UNK         0.5018 
     48 O          28.0843    2.3043  -11.1208 O.2       7 UNK        -0.5186 
     49 N          27.1613    0.4620  -10.1663 N.am      8 UNK        -0.4240 
     50 CA         27.4820   -0.4905  -11.2331 C.3       8 UNK         0.0235 
     51 CB         26.7111   -1.8019  -11.0102 C.3       8 UNK        -0.2000 
     52 C          28.9901   -0.7604  -11.3646 C.2       8 UNK         0.4941 
     53 O          29.5093   -0.7560  -12.4815 O.2       8 UNK        -0.5273 
     54 N          29.6649   -0.9848  -10.2292 N.am      9 UNK        -0.4262 
     55 CA         31.1066   -1.2385  -10.1582 C.3       9 UNK         0.0264 
     56 CB         31.4276   -1.9240   -8.8223 C.3       9 UNK        -0.1955 
     57 C          31.9651    0.0283  -10.3164 C.2       9 UNK         0.5031 
     58 O          33.1478   -0.0968  -10.6375 O.2       9 UNK        -0.5390 
     59 N          31.3701    1.2047  -10.0687 N.am      10 UNK        -0.4204 
     60 CA         31.9960    2.5290  -10.0019 C.3       10 UNK         0.0237 
     61 CB         32.5786    2.9505  -11.3685 C.3       10 UNK        -0.1985 
     62 C          33.0075    2.6164   -8.8430 C.2       10 UNK         0.4970 
     63 O          34.1566    3.0121   -9.0511 O.2       10 UNK        -0.4914 
     64 N          32.5564    2.2266   -7.6426 N.am      11 UNK        -0.4285 
     65 CA         33.3267    2.3051   -6.3909 C.3       11 UNK         0.1007 
     66 C          33.6509    3.7708   -5.9877 C.2       11 UNK         0.5703 
     67 N          34.8131    4.0085   -5.3948 N.am      11 UNK        -0.7361 
     68 O          32.8442    4.6818   -6.1675 O.2       11 UNK        -0.4986 
     69 C69        32.6142    1.5738   -5.2232 C.3       12 UNK        -0.0947 
     70 S70        32.4617   -0.2221   -5.4853 S.3       12 UNK        -0.2240 
     71 C71        31.5623   -0.6873   -3.9657 C.3       12 UNK         0.0194 
     72 H72        28.9895   -2.6169    3.7031 H         1 UNK         0.0906 
     73 H73        29.4083   -4.2662    3.2355 H         1 UNK         0.0906 
     74 H74        30.6039   -2.9773    3.0851 H         1 UNK         0.0906 
     75 H75        28.4809   -4.8311    1.2707 H         1 UNK         0.3140 
     76 H76        28.6975   -3.1533   -1.0773 H         1 UNK         0.1085 
     77 H77        27.5860   -5.0204   -2.2429 H         1 UNK         0.0836 
     78 H78        27.1054   -5.7538   -0.7403 H         1 UNK         0.0836 
     79 H79        30.8950   -4.3992   -0.6689 H         1 UNK         0.0731 
     80 H80        31.7034   -5.6278   -1.6029 H         1 UNK         0.0731 
     81 H81        31.6151   -2.5085   -1.9468 H         1 UNK         0.1312 
     82 H82        30.2940   -2.0349   -5.9920 H         1 UNK         0.1406 
     83 H83        29.6715   -5.7546   -3.9762 H         1 UNK         0.1631 
     84 H84        29.7414   -5.4226   -6.6592 H         1 UNK         0.0717 
     85 H85        29.3166   -3.8210   -7.1925 H         1 UNK         0.0717 
     86 H86        25.8507   -3.6014   -4.9610 H         1 UNK         0.0934 
     87 H87        27.4080   -2.8994   -4.7101 H         1 UNK         0.0934 
     88 H88        26.3092   -2.8564   -7.5532 H         1 UNK         0.0739 
     89 H89        24.8331   -1.6155   -5.4304 H         1 UNK         0.3093 
     90 H90        23.1748    0.8046   -7.4214 H         1 UNK         0.0818 
     91 H91        21.1723   -0.3774   -6.5555 H         1 UNK         0.0819 
     92 H92        21.9091   -1.3079   -7.8482 H         1 UNK         0.0819 
     93 H93        22.1382   -1.8042   -6.1774 H         1 UNK         0.0819 
     94 H94        22.9317    0.0309   -4.6718 H         1 UNK         0.3041 
     95 H95        25.5087    2.1546   -3.4074 H         1 UNK         0.0784 
     96 H96        23.5197    3.6354   -3.7399 H         1 UNK         0.0793 
     97 H97        22.4555    2.3440   -3.2004 H         1 UNK         0.0793 
     98 H98        23.6244    3.0556   -2.0871 H         1 UNK         0.0793 
     99 H99        23.7260    0.5370   -1.9785 H         1 UNK         0.3024 
    100 H100       24.7758   -1.1824   -0.7656 H         1 UNK         0.1171 
    101 H101       23.0036   -2.0578   -2.3399 H         1 UNK         0.0786 
    102 H102       23.7576   -3.3753   -1.4629 H         1 UNK         0.0786 
    103 H103       24.2002   -3.0696   -3.1393 H         1 UNK         0.0786 
    104 H104       26.9700   -2.2334   -2.3073 H         1 UNK         0.2977 
    105 H105       27.0555   -0.3285   -5.1256 H         1 UNK         0.3127 
    106 H106       29.6526    0.3093   -5.9371 H         1 UNK         0.0770 
    107 H107       27.5438    2.1785   -4.7271 H         1 UNK         0.0814 
    108 H108       29.2789    2.4291   -4.6936 H         1 UNK         0.0814 
    109 H109       28.5705    1.0870   -3.8047 H         1 UNK         0.0814 
    110 H110       26.5683    1.6968   -7.1159 H         1 UNK         0.2983 
    111 H111       27.7052    3.5150   -8.9836 H         1 UNK         0.0947 
    112 H112       25.3959    3.5330   -9.9531 H         1 UNK         0.0806 
    113 H113       25.3578    3.6749   -8.2022 H         1 UNK         0.0806 
    114 H114       24.9628    2.1395   -8.9701 H         1 UNK         0.0806 
    115 H115       26.6383    0.1017   -9.3742 H         1 UNK         0.3000 
    116 H116       27.1425   -0.0575  -12.1765 H         1 UNK         0.0850 
    117 H117       26.9268   -2.5220  -11.8005 H         1 UNK         0.0810 
    118 H118       25.6342   -1.6322  -11.0111 H         1 UNK         0.0810 
    119 H119       26.9729   -2.2697  -10.0605 H         1 UNK         0.0810 
    120 H120       29.1477   -1.0265   -9.3500 H         1 UNK         0.3040 
    121 H121       31.3781   -1.9221  -10.9655 H         1 UNK         0.0766 
    122 H122       32.4924   -2.1453   -8.7366 H         1 UNK         0.0812 
    123 H123       30.8905   -2.8662   -8.7205 H         1 UNK         0.0812 
    124 H124       31.1584   -1.2863   -7.9809 H         1 UNK         0.0812 
    125 H125       30.4112    1.1775   -9.7425 H         1 UNK         0.3205 
    126 H126       31.1951    3.2299   -9.7611 H         1 UNK         0.0754 
    127 H127       32.9305    3.9823  -11.3382 H         1 UNK         0.0769 
    128 H128       31.8260    2.8873  -12.1546 H         1 UNK         0.0769 
    129 H129       33.4248    2.3293  -11.6631 H         1 UNK         0.0769 
    130 H130       31.5790    1.9641   -7.5610 H         1 UNK         0.2981 
    131 H131       34.2765    1.7983   -6.5734 H         1 UNK         0.0541 
    132 H132       35.4768    3.2674   -5.2309 H         1 UNK         0.3459 
    133 H133       35.0347    4.9503   -5.1119 H         1 UNK         0.3459 
    134 H134       31.6201    1.9938   -5.0645 H         1 UNK         0.0612 
    135 H135       33.1624    1.7181   -4.2900 H         1 UNK         0.0612 
    136 H136       32.2312   -0.5354   -3.1172 H         1 UNK         0.0624 
    137 H137       30.7203   -0.0129   -3.8167 H         1 UNK         0.0624 
@<TRIPOS>BOND
     1    1    2 1    
     2    1   72 1    
     3    1   73 1    
     4    1   74 1    
     5    2    3 2    
     6    2    4 am   BACKBONE|DICT|INTERRES
     7    4    5 1    
     8    4   75 1    
     9    5    6 1    
    10    5   35 1    
    11    5   76 1    
    12    6    7 1    
    13    6   77 1    
    14    6   78 1    
    15    7    8 1    
    16    8    9 1    
    17    8   79 1    
    18    8   80 1    
    19    9   10 ar   
    20    9   14 ar   
    21   10   11 ar   
    22   10   81 1    
    23   11   12 ar   
    24   11   71 1    
    25   12   13 ar   
    26   12   82 1    
    27   13   14 ar   
    28   13   15 1    
    29   14   83 1    
    30   15   16 1    
    31   15   84 1    
    32   15   85 1    
    33   16   17 1    
    34   17   18 1    
    35   17   86 1    
    36   17   87 1    
    37   18   19 1    
    38   18   37 1    
    39   18   88 1    
    40   19   20 am   BACKBONE|DICT|INTERRES
    41   19   89 1    
    42   20   21 2    
    43   20   22 1    
    44   22   23 1    
    45   22   24 1    
    46   22   90 1    
    47   23   91 1    
    48   23   92 1    
    49   23   93 1    
    50   24   25 am   BACKBONE|DICT|INTERRES
    51   24   94 1    
    52   25   26 2    
    53   25   27 1    
    54   27   28 1    
    55   27   29 1    
    56   27   95 1    
    57   28   96 1    
    58   28   97 1    
    59   28   98 1    
    60   29   30 am   BACKBONE|DICT|INTERRES
    61   29   99 1    
    62   30   31 2    
    63   30   32 1    
    64   32   33 1    
    65   32   34 1    
    66   32  100 1    
    67   33  101 1    
    68   33  102 1    
    69   33  103 1    
    70   34   35 am   BACKBONE|DICT|INTERRES
    71   34  104 1    
    72   35   36 2    
    73   37   38 2    
    74   37   39 am   BACKBONE|DICT|INTERRES
    75   39   40 1    
    76   39  105 1    
    77   40   41 1    
    78   40   42 1    
    79   40  106 1    
    80   41  107 1    
    81   41  108 1    
    82   41  109 1    
    83   42   43 2    
    84   42   44 am   BACKBONE|DICT|INTERRES
    85   44   45 1    
    86   44  110 1    
    87   45   46 1    
    88   45   47 1    
    89   45  111 1    
    90   46  112 1    
    91   46  113 1    
    92   46  114 1    
    93   47   48 2    
    94   47   49 am   BACKBONE|DICT|INTERRES
    95   49   50 1    
    96   49  115 1    
    97   50   51 1    
    98   50   52 1    
    99   50  116 1    
   100   51  117 1    
   101   51  118 1    
   102   51  119 1    
   103   52   53 2    
   104   52   54 am   BACKBONE|DICT|INTERRES
   105   54   55 1    
   106   54  120 1    
   107   55   56 1    
   108   55   57 1    
   109   55  121 1    
   110   56  122 1    
   111   56  123 1    
   112   56  124 1    
   113   57   58 2    
   114   57   59 am   BACKBONE|DICT|INTERRES
   115   59   60 1    
   116   59  125 1    
   117   60   61 1    
   118   60   62 1    
   119   60  126 1    
   120   61  127 1    
   121   61  128 1    
   122   61  129 1    
   123   62   63 2    
   124   62   64 am   BACKBONE|DICT|INTERRES
   125   64   65 1    
   126   64  130 1    
   127   65   66 1    
   128   65   69 1    
   129   65  131 1    
   130   66   67 am   BACKBONE|DICT|INTERRES
   131   66   68 2    
   132   67  132 1    
   133   67  133 1    
   134   69   70 1    
   135   69  134 1    
   136   69  135 1    
   137   70   71 1    
   138   71  136 1    
   139   71  137 1    
@<TRIPOS>SUBSTRUCTURE
     1 UNK         1 GROUP             0       ****    0 ROOT    
