@<TRIPOS>MOLECULE
3R137
137   139    1
SMALL
USER_CHARGES


@<TRIPOS>ATOM
      1 CA         23.3000   -3.3250    0.0708 C.3       0 UNK        -0.2020 
      2 C          24.7453   -2.8587    0.1561 C.2       0 UNK         0.4855 
      3 O          24.9936   -1.6731    0.3784 O.2       0 UNK        -0.5197 
      4 N          25.7030   -3.7797   -0.0198 N.am      1 UNK        -0.4892 
      5 CA         27.1390   -3.4854   -0.0734 C.3       1 UNK         0.0835 
      6 C6         27.9812   -4.7848   -0.0061 C.3       12 UNK        -0.0855 
      7 S7         29.7839   -4.4934    0.1391 S.3       12 UNK        -0.2931 
      8 C8         30.4769   -5.6773   -1.0645 C.3       12 UNK         0.0378 
      9 C9         30.6291   -5.0986   -2.4688 C.ar      12 UNK        -0.0802 
     10 C10        31.8998   -4.8347   -2.9920 C.ar      12 UNK        -0.0944 
     11 C11        32.0512   -4.3949   -4.3119 C.ar      12 UNK        -0.0787 
     12 C12        30.9160   -4.1872   -5.1015 C.ar      12 UNK        -0.0862 
     13 C13        29.6344   -4.4371   -4.5910 C.ar      12 UNK        -0.0733 
     14 C14        29.5082   -4.8966   -3.2776 C.ar      12 UNK        -0.0832 
     15 C15        28.3500   -4.2680   -5.4044 C.3       12 UNK         0.0240 
     16 S16        28.5553   -3.8601   -7.1709 S.3       12 UNK        -0.2522 
     17 C17        28.7572   -2.0505   -7.1033 C.3       12 UNK        -0.0967 
     18 CA         27.4175   -1.3306   -7.3941 C.3       5 UNK         0.0660 
     19 N          26.4814   -1.4507   -6.2730 N.am      5 UNK        -0.4015 
     20 C          25.2101   -1.8633   -6.3741 C.2       4 UNK         0.4946 
     21 O          24.6676   -2.1654   -7.4378 O.2       4 UNK        -0.5353 
     22 CA         24.3931   -1.9681   -5.0720 C.3       4 UNK         0.0277 
     23 CB         24.3475   -3.4228   -4.5759 C.3       4 UNK        -0.1981 
     24 N          24.9029   -1.1062   -4.0036 N.am      4 UNK        -0.4209 
     25 C          24.7541    0.2275   -3.9866 C.2       3 UNK         0.4942 
     26 O          24.1133    0.8520   -4.8321 O.2       3 UNK        -0.5208 
     27 CA         25.4562    1.0099   -2.8624 C.3       3 UNK         0.0250 
     28 CB         24.4649    1.3252   -1.7311 C.3       3 UNK        -0.1990 
     29 N          26.6314    0.3399   -2.3000 N.am      3 UNK        -0.4232 
     30 C          27.7298   -0.0169   -2.9817 C.2       2 UNK         0.4993 
     31 O          27.8744    0.1518   -4.1937 O.2       2 UNK        -0.5286 
     32 CA         28.8283   -0.7337   -2.1847 C.3       2 UNK         0.0209 
     33 CB         29.7712    0.2987   -1.5453 C.3       2 UNK        -0.1931 
     34 N          28.3315   -1.6336   -1.1412 N.am      2 UNK        -0.4546 
     35 C          27.4620   -2.6369   -1.3204 C.2       1 UNK         0.5154 
     36 O          26.9189   -2.8987   -2.3977 O.2       1 UNK        -0.5181 
     37 C          27.6571    0.1408   -7.7724 C.2       5 UNK         0.5014 
     38 O          27.9425    0.3966   -8.9411 O.2       5 UNK        -0.5248 
     39 N          27.5231    1.0754   -6.8165 N.am      6 UNK        -0.4434 
     40 CA         27.8231    2.5121   -6.9289 C.3       6 UNK         0.0363 
     41 CB         27.4120    3.2096   -5.6220 C.3       6 UNK        -0.1936 
     42 C          27.2044    3.2487   -8.1318 C.2       6 UNK         0.5081 
     43 O          27.7690    4.2441   -8.5866 O.2       6 UNK        -0.5248 
     44 N          26.0631    2.7559   -8.6276 N.am      7 UNK        -0.4718 
     45 CA         25.3874    3.2650   -9.8217 C.3       7 UNK         0.0273 
     46 CB         23.9375    2.7525   -9.8230 C.3       7 UNK        -0.1935 
     47 C          26.0878    2.8917  -11.1441 C.2       7 UNK         0.5018 
     48 O          25.8014    3.5303  -12.1582 O.2       7 UNK        -0.5186 
     49 N          26.9526    1.8668  -11.1310 N.am      8 UNK        -0.4240 
     50 CA         27.5955    1.3002  -12.3191 C.3       8 UNK         0.0235 
     51 CB         27.0511   -0.1202  -12.5485 C.3       8 UNK        -0.2000 
     52 C          29.1290    1.2676  -12.2261 C.2       8 UNK         0.4941 
     53 O          29.7804    1.4109  -13.2623 O.2       8 UNK        -0.5273 
     54 N          29.6886    1.0620  -11.0269 N.am      9 UNK        -0.4262 
     55 CA         31.1238    0.9044  -10.7943 C.3       9 UNK         0.0264 
     56 CB         31.4567   -0.5960  -10.7140 C.3       9 UNK        -0.1955 
     57 C          31.5343    1.6123   -9.5002 C.2       9 UNK         0.5031 
     58 O          30.7284    1.7246   -8.5755 O.2       9 UNK        -0.5390 
     59 N          32.8071    2.0258   -9.4335 N.am      10 UNK        -0.4204 
     60 CA         33.4088    2.7533   -8.3078 C.3       10 UNK         0.0237 
     61 CB         34.8433    3.1618   -8.6827 C.3       10 UNK        -0.1985 
     62 C          33.3995    2.0016   -6.9622 C.2       10 UNK         0.4970 
     63 O          33.4891    2.6505   -5.9191 O.2       10 UNK        -0.4914 
     64 N          33.2860    0.6670   -7.0024 N.am      11 UNK        -0.4285 
     65 CA         33.1012   -0.1880   -5.8215 C.3       11 UNK         0.1007 
     66 C          31.6999   -0.0691   -5.1529 C.2       11 UNK         0.5703 
     67 N          30.6989    0.5438   -5.7765 N.am      11 UNK        -0.7361 
     68 O          31.5259   -0.5292   -4.0315 O.2       11 UNK        -0.4986 
     69 C69        33.4776   -1.6628   -6.1310 C.3       12 UNK        -0.0947 
     70 S70        34.1179   -2.5490   -4.6677 S.3       12 UNK        -0.2240 
     71 C71        33.4447   -4.2226   -4.9053 C.3       12 UNK         0.0194 
     72 H72        22.7795   -3.1063    1.0028 H         1 UNK         0.0906 
     73 H73        22.7868   -2.8039   -0.7371 H         1 UNK         0.0906 
     74 H74        23.2265   -4.3962   -0.1159 H         1 UNK         0.0906 
     75 H75        25.4405   -4.7326   -0.2278 H         1 UNK         0.3140 
     76 H76        27.3730   -2.8904    0.8126 H         1 UNK         0.1085 
     77 H77        27.6837   -5.3602    0.8722 H         1 UNK         0.0836 
     78 H78        27.7621   -5.4284   -0.8577 H         1 UNK         0.0836 
     79 H79        31.4492   -6.0028   -0.6914 H         1 UNK         0.0731 
     80 H80        29.8610   -6.5772   -1.1004 H         1 UNK         0.0731 
     81 H81        32.7778   -5.0074   -2.3845 H         1 UNK         0.1312 
     82 H82        31.0447   -3.8564   -6.1210 H         1 UNK         0.1406 
     83 H83        28.5222   -5.1125   -2.8943 H         1 UNK         0.1631 
     84 H84        27.7315   -3.5079   -4.9280 H         1 UNK         0.0717 
     85 H85        27.7831   -5.1985   -5.3501 H         1 UNK         0.0717 
     86 H86        29.1649   -1.7552   -6.1348 H         1 UNK         0.0934 
     87 H87        29.5135   -1.7848   -7.8450 H         1 UNK         0.0934 
     88 H88        26.9839   -1.7914   -8.2846 H         1 UNK         0.0739 
     89 H89        26.8395   -1.1855   -5.3628 H         1 UNK         0.3093 
     90 H90        23.3710   -1.6590   -5.3021 H         1 UNK         0.0818 
     91 H91        23.7406   -3.5172   -3.6752 H         1 UNK         0.0819 
     92 H92        23.9110   -4.0776   -5.3312 H         1 UNK         0.0819 
     93 H93        25.3423   -3.8071   -4.3504 H         1 UNK         0.0819 
     94 H94        25.4669   -1.5515   -3.2872 H         1 UNK         0.3041 
     95 H95        25.7967    1.9544   -3.2901 H         1 UNK         0.0784 
     96 H96        23.5934    1.8593   -2.1125 H         1 UNK         0.0793 
     97 H97        24.1042    0.4169   -1.2466 H         1 UNK         0.0793 
     98 H98        24.9199    1.9557   -0.9670 H         1 UNK         0.0793 
     99 H99        26.5937    0.1160   -1.3152 H         1 UNK         0.3024 
    100 H100       29.3914   -1.3451   -2.8927 H         1 UNK         0.1171 
    101 H101       30.1325    1.0119   -2.2879 H         1 UNK         0.0786 
    102 H102       30.6485   -0.1835   -1.1136 H         1 UNK         0.0786 
    103 H103       29.2767    0.8710   -0.7596 H         1 UNK         0.0786 
    104 H104       28.7367   -1.5124   -0.2241 H         1 UNK         0.2977 
    105 H105       27.3598    0.7502   -5.8677 H         1 UNK         0.3127 
    106 H106       28.9047    2.6048   -7.0267 H         1 UNK         0.0770 
    107 H107       26.3444    3.0991   -5.4288 H         1 UNK         0.0814 
    108 H108       27.6277    4.2782   -5.6628 H         1 UNK         0.0814 
    109 H109       27.9553    2.8077   -4.7669 H         1 UNK         0.0814 
    110 H110       25.6690    1.9365   -8.1881 H         1 UNK         0.2983 
    111 H111       25.3643    4.3556   -9.7651 H         1 UNK         0.0947 
    112 H112       23.3868    3.1396  -10.6816 H         1 UNK         0.0806 
    113 H113       23.4026    3.0707   -8.9279 H         1 UNK         0.0806 
    114 H114       23.8942    1.6637   -9.8725 H         1 UNK         0.0806 
    115 H115       27.1648    1.4132  -10.2445 H         1 UNK         0.3000 
    116 H116       27.3518    1.8972  -13.2005 H         1 UNK         0.0850 
    117 H117       27.5075   -0.5783  -13.4271 H         1 UNK         0.0810 
    118 H118       25.9734   -0.1088  -12.7121 H         1 UNK         0.0810 
    119 H119       27.2540   -0.7708  -11.6965 H         1 UNK         0.0810 
    120 H120       29.1047    0.9611  -10.1965 H         1 UNK         0.3040 
    121 H121       31.6874    1.3539  -11.6148 H         1 UNK         0.0766 
    122 H122       32.5220   -0.7581  -10.5462 H         1 UNK         0.0812 
    123 H123       31.1948   -1.1083  -11.6399 H         1 UNK         0.0812 
    124 H124       30.9174   -1.0830   -9.9003 H         1 UNK         0.0812 
    125 H125       33.4055    1.8684  -10.2322 H         1 UNK         0.3205 
    126 H126       32.8225    3.6632   -8.1632 H         1 UNK         0.0754 
    127 H127       35.3102    3.7340   -7.8794 H         1 UNK         0.0769 
    128 H128       34.8585    3.7902   -9.5735 H         1 UNK         0.0769 
    129 H129       35.4743    2.2924   -8.8720 H         1 UNK         0.0769 
    130 H130       33.2086    0.2170   -7.9009 H         1 UNK         0.2981 
    131 H131       33.8110    0.1795   -5.0775 H         1 UNK         0.0541 
    132 H132       30.8156    0.9476   -6.6998 H         1 UNK         0.3459 
    133 H133       29.8113    0.6101   -5.3013 H         1 UNK         0.3459 
    134 H134       34.2716   -1.7008   -6.8786 H         1 UNK         0.0612 
    135 H135       32.6336   -2.1970   -6.5689 H         1 UNK         0.0612 
    136 H136       33.4417   -4.4714   -5.9677 H         1 UNK         0.0624 
    137 H137       34.1271   -4.9334   -4.4370 H         1 UNK         0.0624 
@<TRIPOS>BOND
     1    1    2 1    
     2    1   72 1    
     3    1   73 1    
     4    1   74 1    
     5    2    3 2    
     6    2    4 am   BACKBONE|DICT|INTERRES
     7    4    5 1    
     8    4   75 1    
     9    5    6 1    
    10    5   35 1    
    11    5   76 1    
    12    6    7 1    
    13    6   77 1    
    14    6   78 1    
    15    7    8 1    
    16    8    9 1    
    17    8   79 1    
    18    8   80 1    
    19    9   10 ar   
    20    9   14 ar   
    21   10   11 ar   
    22   10   81 1    
    23   11   12 ar   
    24   11   71 1    
    25   12   13 ar   
    26   12   82 1    
    27   13   14 ar   
    28   13   15 1    
    29   14   83 1    
    30   15   16 1    
    31   15   84 1    
    32   15   85 1    
    33   16   17 1    
    34   17   18 1    
    35   17   86 1    
    36   17   87 1    
    37   18   19 1    
    38   18   37 1    
    39   18   88 1    
    40   19   20 am   BACKBONE|DICT|INTERRES
    41   19   89 1    
    42   20   21 2    
    43   20   22 1    
    44   22   23 1    
    45   22   24 1    
    46   22   90 1    
    47   23   91 1    
    48   23   92 1    
    49   23   93 1    
    50   24   25 am   BACKBONE|DICT|INTERRES
    51   24   94 1    
    52   25   26 2    
    53   25   27 1    
    54   27   28 1    
    55   27   29 1    
    56   27   95 1    
    57   28   96 1    
    58   28   97 1    
    59   28   98 1    
    60   29   30 am   BACKBONE|DICT|INTERRES
    61   29   99 1    
    62   30   31 2    
    63   30   32 1    
    64   32   33 1    
    65   32   34 1    
    66   32  100 1    
    67   33  101 1    
    68   33  102 1    
    69   33  103 1    
    70   34   35 am   BACKBONE|DICT|INTERRES
    71   34  104 1    
    72   35   36 2    
    73   37   38 2    
    74   37   39 am   BACKBONE|DICT|INTERRES
    75   39   40 1    
    76   39  105 1    
    77   40   41 1    
    78   40   42 1    
    79   40  106 1    
    80   41  107 1    
    81   41  108 1    
    82   41  109 1    
    83   42   43 2    
    84   42   44 am   BACKBONE|DICT|INTERRES
    85   44   45 1    
    86   44  110 1    
    87   45   46 1    
    88   45   47 1    
    89   45  111 1    
    90   46  112 1    
    91   46  113 1    
    92   46  114 1    
    93   47   48 2    
    94   47   49 am   BACKBONE|DICT|INTERRES
    95   49   50 1    
    96   49  115 1    
    97   50   51 1    
    98   50   52 1    
    99   50  116 1    
   100   51  117 1    
   101   51  118 1    
   102   51  119 1    
   103   52   53 2    
   104   52   54 am   BACKBONE|DICT|INTERRES
   105   54   55 1    
   106   54  120 1    
   107   55   56 1    
   108   55   57 1    
   109   55  121 1    
   110   56  122 1    
   111   56  123 1    
   112   56  124 1    
   113   57   58 2    
   114   57   59 am   BACKBONE|DICT|INTERRES
   115   59   60 1    
   116   59  125 1    
   117   60   61 1    
   118   60   62 1    
   119   60  126 1    
   120   61  127 1    
   121   61  128 1    
   122   61  129 1    
   123   62   63 2    
   124   62   64 am   BACKBONE|DICT|INTERRES
   125   64   65 1    
   126   64  130 1    
   127   65   66 1    
   128   65   69 1    
   129   65  131 1    
   130   66   67 am   BACKBONE|DICT|INTERRES
   131   66   68 2    
   132   67  132 1    
   133   67  133 1    
   134   69   70 1    
   135   69  134 1    
   136   69  135 1    
   137   70   71 1    
   138   71  136 1    
   139   71  137 1    
@<TRIPOS>SUBSTRUCTURE
     1 UNK         1 GROUP             0       ****    0 ROOT    
