@<TRIPOS>MOLECULE
3R137
137   139    1
SMALL
USER_CHARGES


@<TRIPOS>ATOM
      1 CA         26.6409   -7.1017   -3.6327 C.3       0 UNK        -0.2020 
      2 C          27.6160   -6.4599   -4.6170 C.2       0 UNK         0.4855 
      3 O          27.7995   -6.9874   -5.7126 O.2       0 UNK        -0.5197 
      4 N          28.2762   -5.3441   -4.2783 N.am      1 UNK        -0.4892 
      5 CA         28.1337   -4.5596   -3.0437 C.3       1 UNK         0.0835 
      6 C6         29.3715   -3.6570   -2.8120 C.3       12 UNK        -0.0855 
      7 S7         30.9195   -4.6115   -2.6091 S.3       12 UNK        -0.2931 
      8 C8         31.8088   -3.6513   -1.3356 C.3       12 UNK         0.0378 
      9 C9         32.3202   -2.3301   -1.8927 C.ar      12 UNK        -0.0802 
     10 C10        33.6300   -2.2109   -2.3626 C.ar      12 UNK        -0.0944 
     11 C11        34.0764   -1.0058   -2.9139 C.ar      12 UNK        -0.0787 
     12 C12        33.1904    0.0748   -3.0222 C.ar      12 UNK        -0.0862 
     13 C13        31.8695   -0.0356   -2.5724 C.ar      12 UNK        -0.0733 
     14 C14        31.4684   -1.2273   -1.9593 C.ar      12 UNK        -0.0832 
     15 C15        30.8852    1.1221   -2.7697 C.3       12 UNK         0.0240 
     16 S16        29.1621    0.5515   -3.0014 S.3       12 UNK        -0.2522 
     17 C17        28.2754    2.0218   -3.6173 C.3       12 UNK        -0.0967 
     18 CA         27.8835    1.8748   -5.1094 C.3       5 UNK         0.0660 
     19 N          27.2352    0.5917   -5.4039 N.am      5 UNK        -0.4015 
     20 C          27.1325    0.0650   -6.6318 C.2       4 UNK         0.4946 
     21 O          27.5752    0.6107   -7.6424 O.2       4 UNK        -0.5353 
     22 CA         26.4103   -1.2846   -6.7737 C.3       4 UNK         0.0277 
     23 CB         27.4214   -2.4329   -6.6317 C.3       4 UNK        -0.1981 
     24 N          25.3151   -1.4600   -5.8163 N.am      4 UNK        -0.4209 
     25 C          24.2674   -0.6273   -5.7021 C.2       3 UNK         0.4942 
     26 O          24.0775    0.3281   -6.4552 O.2       3 UNK        -0.5208 
     27 CA         23.2956   -0.8402   -4.5279 C.3       3 UNK         0.0250 
     28 CB         22.0043   -1.5128   -5.0194 C.3       3 UNK        -0.1990 
     29 N          23.8429   -1.6095   -3.4066 N.am      3 UNK        -0.4232 
     30 C          24.9357   -1.3060   -2.6901 C.2       2 UNK         0.4993 
     31 O          25.6402   -0.3163   -2.8999 O.2       2 UNK        -0.5286 
     32 CA         25.3351   -2.3007   -1.5800 C.3       2 UNK         0.0209 
     33 CB         24.2022   -3.2725   -1.1759 C.3       2 UNK        -0.1931 
     34 N          26.5481   -3.0689   -1.8986 N.am      2 UNK        -0.4546 
     35 C          26.8198   -3.7387   -3.0309 C.2       1 UNK         0.5154 
     36 O          26.0769   -3.7385   -4.0171 O.2       1 UNK        -0.5181 
     37 C          27.0240    3.0593   -5.5910 C.2       5 UNK         0.5014 
     38 O          27.5775    4.0428   -6.0829 O.2       5 UNK        -0.5248 
     39 N          25.6920    2.9288   -5.4908 N.am      6 UNK        -0.4434 
     40 CA         24.7218    3.8898   -6.0236 C.3       6 UNK         0.0363 
     41 CB         23.3412    3.6336   -5.3978 C.3       6 UNK        -0.1936 
     42 C          24.6441    3.8414   -7.5595 C.2       6 UNK         0.5081 
     43 O          24.5093    4.8874   -8.1939 O.2       6 UNK        -0.5248 
     44 N          24.7663    2.6345   -8.1302 N.am      7 UNK        -0.4718 
     45 CA         24.8253    2.3828   -9.5744 C.3       7 UNK         0.0273 
     46 CB         24.5332    0.8943   -9.8262 C.3       7 UNK        -0.1935 
     47 C          26.1645    2.7820  -10.2280 C.2       7 UNK         0.5018 
     48 O          26.2539    2.7616  -11.4560 O.2       7 UNK        -0.5186 
     49 N          27.1751    3.1107   -9.4087 N.am      8 UNK        -0.4240 
     50 CA         28.5536    3.4697   -9.7671 C.3       8 UNK         0.0235 
     51 CB         28.5985    4.7318  -10.6553 C.3       8 UNK        -0.2000 
     52 C          29.3791    2.3004  -10.3436 C.2       8 UNK         0.4941 
     53 O          30.4082    2.5383  -10.9783 O.2       8 UNK        -0.5273 
     54 N          28.9483    1.0608  -10.0752 N.am      9 UNK        -0.4262 
     55 CA         29.7251   -0.1619  -10.2950 C.3       9 UNK         0.0264 
     56 CB         28.7648   -1.3486  -10.4737 C.3       9 UNK        -0.1955 
     57 C          30.6989   -0.4142   -9.1294 C.2       9 UNK         0.5031 
     58 O          31.7830   -0.9567   -9.3522 O.2       9 UNK        -0.5390 
     59 N          30.2949    0.0121   -7.9219 N.am      10 UNK        -0.4204 
     60 CA         31.0399    0.0304   -6.6628 C.3       10 UNK         0.0237 
     61 CB         32.0596    1.1919   -6.6776 C.3       10 UNK        -0.1985 
     62 C          31.6371   -1.3403   -6.3095 C.2       10 UNK         0.4970 
     63 O          30.8829   -2.2566   -5.9815 O.2       10 UNK        -0.4914 
     64 N          32.9671   -1.4419   -6.3810 N.am      11 UNK        -0.4285 
     65 CA         33.7582   -2.6237   -6.0235 C.3       11 UNK         0.1007 
     66 C          33.5663   -3.8469   -6.9676 C.2       11 UNK         0.5703 
     67 N          32.9719   -3.6915   -8.1464 N.am      11 UNK        -0.7361 
     68 O          33.9706   -4.9552   -6.6245 O.2       11 UNK        -0.4986 
     69 C69        35.2701   -2.2871   -5.8523 C.3       12 UNK        -0.0947 
     70 S70        35.6419   -0.6244   -5.1821 S.3       12 UNK        -0.2240 
     71 C71        35.5185   -0.8729   -3.3849 C.3       12 UNK         0.0194 
     72 H72        27.1254   -7.3177   -2.6813 H         1 UNK         0.0906 
     73 H73        25.7815   -6.4561   -3.4561 H         1 UNK         0.0906 
     74 H74        26.2665   -8.0451   -4.0298 H         1 UNK         0.0906 
     75 H75        28.9170   -4.9493   -4.9513 H         1 UNK         0.3140 
     76 H76        28.0750   -5.2525   -2.2025 H         1 UNK         0.1085 
     77 H77        29.2255   -3.0649   -1.9099 H         1 UNK         0.0836 
     78 H78        29.5005   -2.9467   -3.6317 H         1 UNK         0.0836 
     79 H79        32.6443   -4.2485   -0.9671 H         1 UNK         0.0731 
     80 H80        31.1589   -3.4780   -0.4766 H         1 UNK         0.0731 
     81 H81        34.2996   -3.0580   -2.3031 H         1 UNK         0.1312 
     82 H82        33.5314    0.9978   -3.4707 H         1 UNK         0.1406 
     83 H83        30.4685   -1.3126   -1.5644 H         1 UNK         0.1631 
     84 H84        31.1763    1.7097   -3.6415 H         1 UNK         0.0717 
     85 H85        30.9324    1.7866   -1.9062 H         1 UNK         0.0717 
     86 H86        27.3854    2.1500   -2.9975 H         1 UNK         0.0934 
     87 H87        28.8874    2.9127   -3.4634 H         1 UNK         0.0934 
     88 H88        28.8067    1.9180   -5.6892 H         1 UNK         0.0739 
     89 H89        26.8425    0.0961   -4.6096 H         1 UNK         0.3093 
     90 H90        25.9797   -1.3290   -7.7751 H         1 UNK         0.0818 
     91 H91        28.2158   -2.3558   -7.3747 H         1 UNK         0.0819 
     92 H92        27.9021   -2.4267   -5.6529 H         1 UNK         0.0819 
     93 H93        26.9453   -3.4046   -6.7650 H         1 UNK         0.0819 
     94 H94        25.4088   -2.2259   -5.1542 H         1 UNK         0.3041 
     95 H95        23.0410    0.1501   -4.1449 H         1 UNK         0.0784 
     96 H96        21.5557   -0.9465   -5.8373 H         1 UNK         0.0793 
     97 H97        22.1904   -2.5230   -5.3864 H         1 UNK         0.0793 
     98 H98        21.2598   -1.5738   -4.2254 H         1 UNK         0.0793 
     99 H99        23.3614   -2.4670   -3.1781 H         1 UNK         0.3024 
    100 H100       25.5701   -1.6874   -0.7082 H         1 UNK         0.1171 
    101 H101       24.4865   -3.8562   -0.3001 H         1 UNK         0.0786 
    102 H102       23.2906   -2.7339   -0.9121 H         1 UNK         0.0786 
    103 H103       23.9587   -3.9789   -1.9706 H         1 UNK         0.0786 
    104 H104       27.2311   -3.1018   -1.1547 H         1 UNK         0.2977 
    105 H105       25.3176    2.0700   -5.1129 H         1 UNK         0.3127 
    106 H106       25.0427    4.8941   -5.7380 H         1 UNK         0.0770 
    107 H107       22.9559    2.6452   -5.6501 H         1 UNK         0.0814 
    108 H108       22.6135    4.3649   -5.7523 H         1 UNK         0.0814 
    109 H109       23.3764    3.7136   -4.3113 H         1 UNK         0.0814 
    110 H110       24.7828    1.8164   -7.5269 H         1 UNK         0.2983 
    111 H111       24.0425    2.9730  -10.0558 H         1 UNK         0.0947 
    112 H112       24.4789    0.6807  -10.8945 H         1 UNK         0.0806 
    113 H113       23.5814    0.5945   -9.3870 H         1 UNK         0.0806 
    114 H114       25.3118    0.2576   -9.4069 H         1 UNK         0.0806 
    115 H115       26.9873    3.0599   -8.4162 H         1 UNK         0.3000 
    116 H116       29.0371    3.7249   -8.8226 H         1 UNK         0.0850 
    117 H117       29.6208    5.0946  -10.7675 H         1 UNK         0.0810 
    118 H118       28.0146    5.5433  -10.2211 H         1 UNK         0.0810 
    119 H119       28.2138    4.5382  -11.6568 H         1 UNK         0.0810 
    120 H120       28.1266    0.9706   -9.4852 H         1 UNK         0.3040 
    121 H121       30.3146   -0.0571  -11.2084 H         1 UNK         0.0766 
    122 H122       28.1347   -1.2151  -11.3532 H         1 UNK         0.0812 
    123 H123       28.1096   -1.4750   -9.6120 H         1 UNK         0.0812 
    124 H124       29.3157   -2.2806  -10.6076 H         1 UNK         0.0812 
    125 H125       29.3401    0.3603   -7.8604 H         1 UNK         0.3205 
    126 H126       30.3185    0.2351   -5.8730 H         1 UNK         0.0754 
    127 H127       32.7715    1.1052   -7.4994 H         1 UNK         0.0769 
    128 H128       32.6265    1.2381   -5.7476 H         1 UNK         0.0769 
    129 H129       31.5521    2.1506   -6.7868 H         1 UNK         0.0769 
    130 H130       33.4995   -0.6380   -6.6764 H         1 UNK         0.2981 
    131 H131       33.3862   -2.9488   -5.0510 H         1 UNK         0.0541 
    132 H132       32.6365   -2.7811   -8.4364 H         1 UNK         0.3459 
    133 H133       32.8538   -4.4892   -8.7498 H         1 UNK         0.3459 
    134 H134       35.7535   -3.0393   -5.2267 H         1 UNK         0.0612 
    135 H135       35.7750   -2.3372   -6.8190 H         1 UNK         0.0612 
    136 H136       35.9724   -0.0167   -2.8843 H         1 UNK         0.0624 
    137 H137       36.1111   -1.7432   -3.0990 H         1 UNK         0.0624 
@<TRIPOS>BOND
     1    1    2 1    
     2    1   72 1    
     3    1   73 1    
     4    1   74 1    
     5    2    3 2    
     6    2    4 am   BACKBONE|DICT|INTERRES
     7    4    5 1    
     8    4   75 1    
     9    5    6 1    
    10    5   35 1    
    11    5   76 1    
    12    6    7 1    
    13    6   77 1    
    14    6   78 1    
    15    7    8 1    
    16    8    9 1    
    17    8   79 1    
    18    8   80 1    
    19    9   10 ar   
    20    9   14 ar   
    21   10   11 ar   
    22   10   81 1    
    23   11   12 ar   
    24   11   71 1    
    25   12   13 ar   
    26   12   82 1    
    27   13   14 ar   
    28   13   15 1    
    29   14   83 1    
    30   15   16 1    
    31   15   84 1    
    32   15   85 1    
    33   16   17 1    
    34   17   18 1    
    35   17   86 1    
    36   17   87 1    
    37   18   19 1    
    38   18   37 1    
    39   18   88 1    
    40   19   20 am   BACKBONE|DICT|INTERRES
    41   19   89 1    
    42   20   21 2    
    43   20   22 1    
    44   22   23 1    
    45   22   24 1    
    46   22   90 1    
    47   23   91 1    
    48   23   92 1    
    49   23   93 1    
    50   24   25 am   BACKBONE|DICT|INTERRES
    51   24   94 1    
    52   25   26 2    
    53   25   27 1    
    54   27   28 1    
    55   27   29 1    
    56   27   95 1    
    57   28   96 1    
    58   28   97 1    
    59   28   98 1    
    60   29   30 am   BACKBONE|DICT|INTERRES
    61   29   99 1    
    62   30   31 2    
    63   30   32 1    
    64   32   33 1    
    65   32   34 1    
    66   32  100 1    
    67   33  101 1    
    68   33  102 1    
    69   33  103 1    
    70   34   35 am   BACKBONE|DICT|INTERRES
    71   34  104 1    
    72   35   36 2    
    73   37   38 2    
    74   37   39 am   BACKBONE|DICT|INTERRES
    75   39   40 1    
    76   39  105 1    
    77   40   41 1    
    78   40   42 1    
    79   40  106 1    
    80   41  107 1    
    81   41  108 1    
    82   41  109 1    
    83   42   43 2    
    84   42   44 am   BACKBONE|DICT|INTERRES
    85   44   45 1    
    86   44  110 1    
    87   45   46 1    
    88   45   47 1    
    89   45  111 1    
    90   46  112 1    
    91   46  113 1    
    92   46  114 1    
    93   47   48 2    
    94   47   49 am   BACKBONE|DICT|INTERRES
    95   49   50 1    
    96   49  115 1    
    97   50   51 1    
    98   50   52 1    
    99   50  116 1    
   100   51  117 1    
   101   51  118 1    
   102   51  119 1    
   103   52   53 2    
   104   52   54 am   BACKBONE|DICT|INTERRES
   105   54   55 1    
   106   54  120 1    
   107   55   56 1    
   108   55   57 1    
   109   55  121 1    
   110   56  122 1    
   111   56  123 1    
   112   56  124 1    
   113   57   58 2    
   114   57   59 am   BACKBONE|DICT|INTERRES
   115   59   60 1    
   116   59  125 1    
   117   60   61 1    
   118   60   62 1    
   119   60  126 1    
   120   61  127 1    
   121   61  128 1    
   122   61  129 1    
   123   62   63 2    
   124   62   64 am   BACKBONE|DICT|INTERRES
   125   64   65 1    
   126   64  130 1    
   127   65   66 1    
   128   65   69 1    
   129   65  131 1    
   130   66   67 am   BACKBONE|DICT|INTERRES
   131   66   68 2    
   132   67  132 1    
   133   67  133 1    
   134   69   70 1    
   135   69  134 1    
   136   69  135 1    
   137   70   71 1    
   138   71  136 1    
   139   71  137 1    
@<TRIPOS>SUBSTRUCTURE
     1 UNK         1 GROUP             0       ****    0 ROOT    
