@<TRIPOS>MOLECULE
3R137
137   139    1
SMALL
USER_CHARGES


@<TRIPOS>ATOM
      1 CA         28.9081   -5.0737    3.6370 C.3       0 UNK        -0.2020 
      2 C          28.6780   -3.7473    2.9286 C.2       0 UNK         0.4855 
      3 O          28.5643   -2.7129    3.5866 O.2       0 UNK        -0.5197 
      4 N          28.6100   -3.7683    1.5912 N.am      1 UNK        -0.4892 
      5 CA         28.3633   -2.5949    0.7427 C.3       1 UNK         0.0835 
      6 C6         28.7401   -2.8746   -0.7356 C.3       12 UNK        -0.0855 
      7 S7         27.8100   -4.2728   -1.4643 S.3       12 UNK        -0.2931 
      8 C8         29.0515   -5.0414   -2.5413 C.3       12 UNK         0.0378 
      9 C9         29.1409   -4.3291   -3.8812 C.ar      12 UNK        -0.0802 
     10 C10        30.1018   -3.3371   -4.0947 C.ar      12 UNK        -0.0944 
     11 C11        30.2362   -2.7391   -5.3517 C.ar      12 UNK        -0.0787 
     12 C12        29.3960   -3.1408   -6.3950 C.ar      12 UNK        -0.0862 
     13 C13        28.4038   -4.1041   -6.1836 C.ar      12 UNK        -0.0733 
     14 C14        28.2843   -4.6956   -4.9233 C.ar      12 UNK        -0.0832 
     15 C15        27.4886   -4.5451   -7.3195 C.3       12 UNK         0.0240 
     16 S16        26.0149   -3.4820   -7.4788 S.3       12 UNK        -0.2522 
     17 C17        26.7056   -2.0373   -8.3610 C.3       12 UNK        -0.0967 
     18 CA         26.6819   -0.7075   -7.5532 C.3       5 UNK         0.0660 
     19 N          27.0492   -0.9109   -6.1423 N.am      5 UNK        -0.4015 
     20 C          26.8437   -0.0683   -5.1224 C.2       4 UNK         0.4946 
     21 O          26.3966    1.0731   -5.2594 O.2       4 UNK        -0.5353 
     22 CA         27.1742   -0.6069   -3.7180 C.3       4 UNK         0.0277 
     23 CB         27.1911    0.5120   -2.6559 C.3       4 UNK        -0.1981 
     24 N          26.2751   -1.6924   -3.2974 N.am      4 UNK        -0.4209 
     25 C          24.9298   -1.6921   -3.2989 C.2       3 UNK         0.4942 
     26 O          24.2256   -0.7587   -3.6838 O.2       3 UNK        -0.5208 
     27 CA         24.2495   -2.9504   -2.7411 C.3       3 UNK         0.0250 
     28 CB         24.6207   -4.2103   -3.5442 C.3       3 UNK        -0.1990 
     29 N          24.5782   -3.1283   -1.3256 N.am      3 UNK        -0.4232 
     30 C          23.9732   -2.4757   -0.3204 C.2       2 UNK         0.4993 
     31 O          23.0118   -1.7211   -0.4723 O.2       2 UNK        -0.5286 
     32 CA         24.5254   -2.6995    1.0999 C.3       2 UNK         0.0209 
     33 CB         23.7806   -3.8506    1.7954 C.3       2 UNK        -0.1931 
     34 N          25.9631   -2.9759    1.1145 N.am      2 UNK        -0.4546 
     35 C          26.9156   -2.0683    0.8531 C.2       1 UNK         0.5154 
     36 O          26.6881   -0.8706    0.6806 O.2       1 UNK        -0.5181 
     37 C          27.5100    0.3914   -8.2710 C.2       5 UNK         0.5014 
     38 O          27.8899    0.2117   -9.4311 O.2       5 UNK        -0.5248 
     39 N          27.7935    1.5064   -7.5870 N.am      6 UNK        -0.4434 
     40 CA         28.7200    2.5698   -7.9861 C.3       6 UNK         0.0363 
     41 CB         28.8335    3.5940   -6.8476 C.3       6 UNK        -0.1936 
     42 C          28.3818    3.2662   -9.3145 C.2       6 UNK         0.5081 
     43 O          29.2848    3.7972   -9.9583 O.2       6 UNK        -0.5248 
     44 N          27.1100    3.2132   -9.7313 N.am      7 UNK        -0.4718 
     45 CA         26.6383    3.6882  -11.0349 C.3       7 UNK         0.0273 
     46 CB         25.1019    3.6415  -11.0587 C.3       7 UNK        -0.1935 
     47 C          27.2182    2.9082  -12.2328 C.2       7 UNK         0.5018 
     48 O          27.2545    3.4593  -13.3339 O.2       7 UNK        -0.5186 
     49 N          27.6511    1.6592  -12.0069 N.am      8 UNK        -0.4240 
     50 CA         28.2499    0.7866  -13.0187 C.3       8 UNK         0.0235 
     51 CB         27.3425   -0.4371  -13.2321 C.3       8 UNK        -0.2000 
     52 C          29.6651    0.3398  -12.6246 C.2       8 UNK         0.4941 
     53 O          30.5525    0.3317  -13.4781 O.2       8 UNK        -0.5273 
     54 N          29.8537   -0.0412  -11.3546 N.am      9 UNK        -0.4262 
     55 CA         31.0812   -0.6541  -10.8419 C.3       9 UNK         0.0264 
     56 CB         30.6943   -1.6525   -9.7383 C.3       9 UNK        -0.1955 
     57 C          32.1011    0.3534  -10.2885 C.2       9 UNK         0.5031 
     58 O          33.2021   -0.0670   -9.9286 O.2       9 UNK        -0.5390 
     59 N          31.7217    1.6346  -10.1632 N.am      10 UNK        -0.4204 
     60 CA         32.4538    2.7501   -9.5374 C.3       10 UNK         0.0237 
     61 CB         33.8018    3.0196  -10.2357 C.3       10 UNK        -0.1985 
     62 C          32.6312    2.6170   -8.0115 C.2       10 UNK         0.4970 
     63 O          32.4129    3.5966   -7.2991 O.2       10 UNK        -0.4914 
     64 N          33.0113    1.4214   -7.5447 N.am      11 UNK        -0.4285 
     65 CA         33.2371    1.0412   -6.1396 C.3       11 UNK         0.1007 
     66 C          34.4188    1.7858   -5.4434 C.2       11 UNK         0.5703 
     67 N          35.3432    2.3917   -6.1798 N.am      11 UNK        -0.7361 
     68 O          34.5264    1.7865   -4.2191 O.2       11 UNK        -0.4986 
     69 C69        31.9336    1.0410   -5.2857 C.3       12 UNK        -0.0947 
     70 S70        30.6182   -0.0477   -5.9310 S.3       12 UNK        -0.2240 
     71 C71        31.3177   -1.6934   -5.5888 C.3       12 UNK         0.0194 
     72 H72        28.9955   -5.9023    2.9345 H         1 UNK         0.0906 
     73 H73        28.0795   -5.2872    4.3117 H         1 UNK         0.0906 
     74 H74        29.8243   -5.0306    4.2254 H         1 UNK         0.0906 
     75 H75        28.7127   -4.6439    1.0961 H         1 UNK         0.3140 
     76 H76        29.0099   -1.7900    1.1004 H         1 UNK         0.1085 
     77 H77        28.5869   -1.9872   -1.3507 H         1 UNK         0.0836 
     78 H78        29.8092   -3.0838   -0.7935 H         1 UNK         0.0836 
     79 H79        30.0235   -5.0646   -2.0462 H         1 UNK         0.0731 
     80 H80        28.7740   -6.0844   -2.7012 H         1 UNK         0.0731 
     81 H81        30.7623   -3.0503   -3.2878 H         1 UNK         0.1312 
     82 H82        29.5187   -2.6991   -7.3713 H         1 UNK         0.1406 
     83 H83        27.5384   -5.4618   -4.7589 H         1 UNK         0.1631 
     84 H84        28.0370   -4.5704   -8.2624 H         1 UNK         0.0717 
     85 H85        27.1541   -5.5692   -7.1461 H         1 UNK         0.0717 
     86 H86        27.7179   -2.2767   -8.6874 H         1 UNK         0.0934 
     87 H87        26.1351   -1.9128   -9.2835 H         1 UNK         0.0934 
     88 H88        25.6499   -0.3512   -7.5523 H         1 UNK         0.0739 
     89 H89        27.4244   -1.8258   -5.9325 H         1 UNK         0.3093 
     90 H90        28.1799   -1.0271   -3.7707 H         1 UNK         0.0818 
     91 H91        27.5141    0.1385   -1.6856 H         1 UNK         0.0819 
     92 H92        27.8798    1.3088   -2.9398 H         1 UNK         0.0819 
     93 H93        26.2062    0.9623   -2.5272 H         1 UNK         0.0819 
     94 H94        26.7372   -2.5294   -2.9672 H         1 UNK         0.3041 
     95 H95        23.1699   -2.8129   -2.8363 H         1 UNK         0.0784 
     96 H96        24.3998   -4.0747   -4.6040 H         1 UNK         0.0793 
     97 H97        25.6772   -4.4598   -3.4639 H         1 UNK         0.0793 
     98 H98        24.0503   -5.0746   -3.2039 H         1 UNK         0.0793 
     99 H99        25.3741   -3.7128   -1.1091 H         1 UNK         0.3024 
    100 H100       24.3479   -1.7825    1.6671 H         1 UNK         0.1171 
    101 H101       24.1122   -3.9718    2.8268 H         1 UNK         0.0786 
    102 H102       22.7068   -3.6596    1.8223 H         1 UNK         0.0786 
    103 H103       23.9298   -4.8002    1.2797 H         1 UNK         0.0786 
    104 H104       26.2498   -3.9337    1.2562 H         1 UNK         0.2977 
    105 H105       27.3844    1.5780   -6.6556 H         1 UNK         0.3127 
    106 H106       29.6957    2.0993   -8.1134 H         1 UNK         0.0770 
    107 H107       27.8763    4.0731   -6.6387 H         1 UNK         0.0814 
    108 H108       29.5479    4.3795   -7.0990 H         1 UNK         0.0814 
    109 H109       29.1841    3.1246   -5.9282 H         1 UNK         0.0814 
    110 H110       26.4345    2.7556   -9.1364 H         1 UNK         0.2983 
    111 H111       26.9534    4.7283  -11.1449 H         1 UNK         0.0947 
    112 H112       24.7147    4.0181  -12.0066 H         1 UNK         0.0806 
    113 H113       24.6728    4.2582  -10.2688 H         1 UNK         0.0806 
    114 H114       24.7268    2.6248  -10.9349 H         1 UNK         0.0806 
    115 H115       27.5916    1.2908  -11.0627 H         1 UNK         0.3000 
    116 H116       28.3367    1.3111  -13.9728 H         1 UNK         0.0850 
    117 H117       26.3585   -0.1391  -13.5946 H         1 UNK         0.0810 
    118 H118       27.2012   -1.0031  -12.3102 H         1 UNK         0.0810 
    119 H119       27.7682   -1.1162  -13.9722 H         1 UNK         0.0810 
    120 H120       29.0734    0.0012  -10.6991 H         1 UNK         0.3040 
    121 H121       31.5722   -1.2085  -11.6447 H         1 UNK         0.0766 
    122 H122       29.9784   -2.3907  -10.0998 H         1 UNK         0.0812 
    123 H123       30.2522   -1.1401   -8.8837 H         1 UNK         0.0812 
    124 H124       31.5665   -2.1978   -9.3751 H         1 UNK         0.0812 
    125 H125       30.7911    1.8693  -10.4820 H         1 UNK         0.3205 
    126 H126       31.8372    3.6346   -9.6974 H         1 UNK         0.0754 
    127 H127       34.5085    2.2003  -10.1027 H         1 UNK         0.0769 
    128 H128       34.2720    3.9185   -9.8350 H         1 UNK         0.0769 
    129 H129       33.6674    3.1750  -11.3062 H         1 UNK         0.0769 
    130 H130       33.1904    0.6979   -8.2370 H         1 UNK         0.2981 
    131 H131       33.5822    0.0085   -6.1872 H         1 UNK         0.0541 
    132 H132       36.1096    2.8596   -5.7223 H         1 UNK         0.3459 
    133 H133       35.2793    2.3880   -7.1847 H         1 UNK         0.3459 
    134 H134       31.5297    2.0517   -5.2126 H         1 UNK         0.0612 
    135 H135       32.1394    0.7290   -4.2605 H         1 UNK         0.0612 
    136 H136       31.9804   -1.6356   -4.7240 H         1 UNK         0.0624 
    137 H137       31.9388   -1.9967   -6.4327 H         1 UNK         0.0624 
@<TRIPOS>BOND
     1    1    2 1    
     2    1   72 1    
     3    1   73 1    
     4    1   74 1    
     5    2    3 2    
     6    2    4 am   BACKBONE|DICT|INTERRES
     7    4    5 1    
     8    4   75 1    
     9    5    6 1    
    10    5   35 1    
    11    5   76 1    
    12    6    7 1    
    13    6   77 1    
    14    6   78 1    
    15    7    8 1    
    16    8    9 1    
    17    8   79 1    
    18    8   80 1    
    19    9   10 ar   
    20    9   14 ar   
    21   10   11 ar   
    22   10   81 1    
    23   11   12 ar   
    24   11   71 1    
    25   12   13 ar   
    26   12   82 1    
    27   13   14 ar   
    28   13   15 1    
    29   14   83 1    
    30   15   16 1    
    31   15   84 1    
    32   15   85 1    
    33   16   17 1    
    34   17   18 1    
    35   17   86 1    
    36   17   87 1    
    37   18   19 1    
    38   18   37 1    
    39   18   88 1    
    40   19   20 am   BACKBONE|DICT|INTERRES
    41   19   89 1    
    42   20   21 2    
    43   20   22 1    
    44   22   23 1    
    45   22   24 1    
    46   22   90 1    
    47   23   91 1    
    48   23   92 1    
    49   23   93 1    
    50   24   25 am   BACKBONE|DICT|INTERRES
    51   24   94 1    
    52   25   26 2    
    53   25   27 1    
    54   27   28 1    
    55   27   29 1    
    56   27   95 1    
    57   28   96 1    
    58   28   97 1    
    59   28   98 1    
    60   29   30 am   BACKBONE|DICT|INTERRES
    61   29   99 1    
    62   30   31 2    
    63   30   32 1    
    64   32   33 1    
    65   32   34 1    
    66   32  100 1    
    67   33  101 1    
    68   33  102 1    
    69   33  103 1    
    70   34   35 am   BACKBONE|DICT|INTERRES
    71   34  104 1    
    72   35   36 2    
    73   37   38 2    
    74   37   39 am   BACKBONE|DICT|INTERRES
    75   39   40 1    
    76   39  105 1    
    77   40   41 1    
    78   40   42 1    
    79   40  106 1    
    80   41  107 1    
    81   41  108 1    
    82   41  109 1    
    83   42   43 2    
    84   42   44 am   BACKBONE|DICT|INTERRES
    85   44   45 1    
    86   44  110 1    
    87   45   46 1    
    88   45   47 1    
    89   45  111 1    
    90   46  112 1    
    91   46  113 1    
    92   46  114 1    
    93   47   48 2    
    94   47   49 am   BACKBONE|DICT|INTERRES
    95   49   50 1    
    96   49  115 1    
    97   50   51 1    
    98   50   52 1    
    99   50  116 1    
   100   51  117 1    
   101   51  118 1    
   102   51  119 1    
   103   52   53 2    
   104   52   54 am   BACKBONE|DICT|INTERRES
   105   54   55 1    
   106   54  120 1    
   107   55   56 1    
   108   55   57 1    
   109   55  121 1    
   110   56  122 1    
   111   56  123 1    
   112   56  124 1    
   113   57   58 2    
   114   57   59 am   BACKBONE|DICT|INTERRES
   115   59   60 1    
   116   59  125 1    
   117   60   61 1    
   118   60   62 1    
   119   60  126 1    
   120   61  127 1    
   121   61  128 1    
   122   61  129 1    
   123   62   63 2    
   124   62   64 am   BACKBONE|DICT|INTERRES
   125   64   65 1    
   126   64  130 1    
   127   65   66 1    
   128   65   69 1    
   129   65  131 1    
   130   66   67 am   BACKBONE|DICT|INTERRES
   131   66   68 2    
   132   67  132 1    
   133   67  133 1    
   134   69   70 1    
   135   69  134 1    
   136   69  135 1    
   137   70   71 1    
   138   71  136 1    
   139   71  137 1    
@<TRIPOS>SUBSTRUCTURE
     1 UNK         1 GROUP             0       ****    0 ROOT    
