@<TRIPOS>MOLECULE
3R137
137   139    1
SMALL
USER_CHARGES


@<TRIPOS>ATOM
      1 CA         25.1591   -6.2981    1.6187 C.3       0 UNK        -0.2020 
      2 C          25.8496   -4.9458    1.5233 C.2       0 UNK         0.4855 
      3 O          25.6084   -4.0763    2.3609 O.2       0 UNK        -0.5197 
      4 N          26.7094   -4.7644    0.5115 N.am      1 UNK        -0.4892 
      5 CA         27.4410   -3.5172    0.2428 C.3       1 UNK         0.0835 
      6 C6         28.5910   -3.7451   -0.7738 C.3       12 UNK        -0.0855 
      7 S7         30.1391   -2.8943   -0.3171 S.3       12 UNK        -0.2931 
      8 C8         31.3789   -3.9012   -1.2039 C.3       12 UNK         0.0378 
      9 C9         31.3906   -3.5982   -2.6970 C.ar      12 UNK        -0.0802 
     10 C10        32.4069   -2.8181   -3.2567 C.ar      12 UNK        -0.0944 
     11 C11        32.4059   -2.5187   -4.6238 C.ar      12 UNK        -0.0787 
     12 C12        31.3524   -2.9753   -5.4251 C.ar      12 UNK        -0.0862 
     13 C13        30.3342   -3.7661   -4.8784 C.ar      12 UNK        -0.0733 
     14 C14        30.3849   -4.1028   -3.5246 C.ar      12 UNK        -0.0832 
     15 C15        29.1891   -4.2753   -5.7461 C.3       12 UNK         0.0240 
     16 S16        27.5498   -3.8489   -5.0519 S.3       12 UNK        -0.2522 
     17 C17        26.5376   -3.7871   -6.5742 C.3       12 UNK        -0.0967 
     18 CA         26.3230   -2.3825   -7.2103 C.3       5 UNK         0.0660 
     19 N          25.1656   -1.6592   -6.6739 N.am      5 UNK        -0.4015 
     20 C          24.5610   -0.6590   -7.3369 C.2       4 UNK         0.4946 
     21 O          24.9051   -0.2724   -8.4556 O.2       4 UNK        -0.5353 
     22 CA         23.4003    0.0551   -6.6262 C.3       4 UNK         0.0277 
     23 CB         22.1282   -0.8079   -6.6516 C.3       4 UNK        -0.1981 
     24 N          23.7142    0.4343   -5.2476 N.am      4 UNK        -0.4209 
     25 C          24.6920    1.2790   -4.8878 C.2       3 UNK         0.4942 
     26 O          25.4381    1.8429   -5.6858 O.2       3 UNK        -0.5208 
     27 CA         24.8889    1.5260   -3.3823 C.3       3 UNK         0.0250 
     28 CB         24.1144    2.7778   -2.9404 C.3       3 UNK        -0.1990 
     29 N          24.5056    0.3912   -2.5375 N.am      3 UNK        -0.4232 
     30 C          25.0778   -0.8199   -2.5752 C.2       2 UNK         0.4993 
     31 O          25.9716   -1.1366   -3.3651 O.2       2 UNK        -0.5286 
     32 CA         24.4920   -1.8664   -1.6139 C.3       2 UNK         0.0209 
     33 CB         23.4303   -2.7125   -2.3365 C.3       2 UNK        -0.1931 
     34 N          25.5124   -2.7569   -1.0625 N.am      2 UNK        -0.4546 
     35 C          26.4956   -2.3893   -0.2268 C.2       1 UNK         0.5154 
     36 O          26.6466   -1.2415    0.1958 O.2       1 UNK        -0.5181 
     37 C          27.5788   -1.4899   -7.2132 C.2       5 UNK         0.5014 
     38 O          28.3465   -1.5428   -8.1728 O.2       5 UNK        -0.5248 
     39 N          27.7488   -0.6726   -6.1618 N.am      6 UNK        -0.4434 
     40 CA         28.8510    0.2778   -6.0237 C.3       6 UNK         0.0363 
     41 CB         28.8023    0.9341   -4.6363 C.3       6 UNK        -0.1936 
     42 C          28.8556    1.3338   -7.1398 C.2       6 UNK         0.5081 
     43 O          29.9126    1.6020   -7.7093 O.2       6 UNK        -0.5248 
     44 N          27.6744    1.8744   -7.4690 N.am      7 UNK        -0.4718 
     45 CA         27.4643    2.7889   -8.5919 C.3       7 UNK         0.0273 
     46 CB         26.0382    3.3590   -8.5382 C.3       7 UNK        -0.1935 
     47 C          27.7362    2.1278   -9.9522 C.2       7 UNK         0.5018 
     48 O          28.4127    2.7320  -10.7844 O.2       7 UNK        -0.5186 
     49 N          27.2373    0.8966  -10.1442 N.am      8 UNK        -0.4240 
     50 CA         27.4416    0.1016  -11.3603 C.3       8 UNK         0.0235 
     51 CB         26.5539   -1.1523  -11.3174 C.3       8 UNK        -0.2000 
     52 C          28.9139   -0.2808  -11.5949 C.2       8 UNK         0.4941 
     53 O          29.3869   -0.1991  -12.7289 O.2       8 UNK        -0.5273 
     54 N          29.6144   -0.6691  -10.5211 N.am      9 UNK        -0.4262 
     55 CA         31.0399   -1.0075  -10.5252 C.3       9 UNK         0.0264 
     56 CB         31.3609   -1.8068   -9.2510 C.3       9 UNK        -0.1955 
     57 C          31.9703    0.2156  -10.6176 C.2       9 UNK         0.5031 
     58 O          33.1546    0.0332  -10.9035 O.2       9 UNK        -0.5390 
     59 N          31.4392    1.4168  -10.3397 N.am      10 UNK        -0.4204 
     60 CA         32.1528    2.6872  -10.1596 C.3       10 UNK         0.0237 
     61 CB         32.8089    3.1580  -11.4753 C.3       10 UNK        -0.1985 
     62 C          33.1330    2.6194   -8.9710 C.2       10 UNK         0.4970 
     63 O          34.2927    3.0192   -9.0915 O.2       10 UNK        -0.4914 
     64 N          32.6371    2.0864   -7.8476 N.am      11 UNK        -0.4285 
     65 CA         33.3719    1.8890   -6.5913 C.3       11 UNK         0.1007 
     66 C          33.7158    3.2071   -5.8350 C.2       11 UNK         0.5703 
     67 N          33.0251    4.3131   -6.0890 N.am      11 UNK        -0.7361 
     68 O          34.6337    3.2331   -5.0189 O.2       11 UNK        -0.4986 
     69 C69        32.6219    0.8756   -5.6822 C.3       12 UNK        -0.0947 
     70 S70        33.7341   -0.0617   -4.5852 S.3       12 UNK        -0.2240 
     71 C71        33.5769   -1.7564   -5.2349 C.3       12 UNK         0.0194 
     72 H72        24.0786   -6.1726    1.5538 H         1 UNK         0.0906 
     73 H73        25.4701   -6.9738    0.8221 H         1 UNK         0.0906 
     74 H74        25.3903   -6.7708    2.5730 H         1 UNK         0.0906 
     75 H75        26.8714   -5.5226   -0.1365 H         1 UNK         0.3140 
     76 H76        27.8689   -3.1964    1.1958 H         1 UNK         0.1085 
     77 H77        28.3023   -3.4384   -1.7817 H         1 UNK         0.0836 
     78 H78        28.8203   -4.8095   -0.8445 H         1 UNK         0.0836 
     79 H79        32.3604   -3.6983   -0.7727 H         1 UNK         0.0731 
     80 H80        31.1917   -4.9630   -1.0370 H         1 UNK         0.0731 
     81 H81        33.2085   -2.4490   -2.6313 H         1 UNK         0.1312 
     82 H82        31.3379   -2.7375   -6.4790 H         1 UNK         0.1406 
     83 H83        29.6154   -4.7397   -3.1140 H         1 UNK         0.1631 
     84 H84        29.2644   -5.3589   -5.8451 H         1 UNK         0.0717 
     85 H85        29.2792   -3.8668   -6.7536 H         1 UNK         0.0717 
     86 H86        27.0002   -4.4444   -7.3127 H         1 UNK         0.0934 
     87 H87        25.5731   -4.2500   -6.3599 H         1 UNK         0.0934 
     88 H88        26.0931   -2.5735   -8.2612 H         1 UNK         0.0739 
     89 H89        24.8724   -1.8892   -5.7352 H         1 UNK         0.3093 
     90 H90        23.1970    0.9746   -7.1795 H         1 UNK         0.0818 
     91 H91        21.2731   -0.2652   -6.2482 H         1 UNK         0.0819 
     92 H92        21.8730   -1.0951   -7.6729 H         1 UNK         0.0819 
     93 H93        22.2454   -1.7261   -6.0747 H         1 UNK         0.0819 
     94 H94        23.1458    0.0280   -4.5197 H         1 UNK         0.3041 
     95 H95        25.9515    1.7101   -3.2165 H         1 UNK         0.0784 
     96 H96        24.4012    3.6444   -3.5383 H         1 UNK         0.0793 
     97 H97        23.0370    2.6483   -3.0511 H         1 UNK         0.0793 
     98 H98        24.3191    3.0251   -1.8985 H         1 UNK         0.0793 
     99 H99        23.7673    0.5611   -1.8692 H         1 UNK         0.3024 
    100 H100       24.0195   -1.3499   -0.7752 H         1 UNK         0.1171 
    101 H101       22.6293   -2.0861   -2.7316 H         1 UNK         0.0786 
    102 H102       22.9695   -3.4334   -1.6607 H         1 UNK         0.0786 
    103 H103       23.8573   -3.2642   -3.1754 H         1 UNK         0.0786 
    104 H104       25.4812   -3.7197   -1.3623 H         1 UNK         0.2977 
    105 H105       27.0911   -0.7279   -5.3934 H         1 UNK         0.3127 
    106 H106       29.7779   -0.2930   -6.0991 H         1 UNK         0.0770 
    107 H107       27.8876    1.5078   -4.4961 H         1 UNK         0.0814 
    108 H108       29.6350    1.6229   -4.4966 H         1 UNK         0.0814 
    109 H109       28.8580    0.1884   -3.8426 H         1 UNK         0.0814 
    110 H110       26.8563    1.6490   -6.9065 H         1 UNK         0.2983 
    111 H111       28.1673    3.6175   -8.4814 H         1 UNK         0.0947 
    112 H112       25.8586    4.0456   -9.3667 H         1 UNK         0.0806 
    113 H113       25.8693    3.9134   -7.6148 H         1 UNK         0.0806 
    114 H114       25.2857    2.5712   -8.5947 H         1 UNK         0.0806 
    115 H115       26.6651    0.4828   -9.4154 H         1 UNK         0.3000 
    116 H116       27.1226    0.7123  -12.2077 H         1 UNK         0.0850 
    117 H117       26.6558   -1.7339  -12.2346 H         1 UNK         0.0810 
    118 H118       25.5008   -0.8899  -11.2145 H         1 UNK         0.0810 
    119 H119       26.8182   -1.8059  -10.4861 H         1 UNK         0.0810 
    120 H120       29.1245   -0.7887   -9.6344 H         1 UNK         0.3040 
    121 H121       31.2417   -1.6419  -11.3908 H         1 UNK         0.0766 
    122 H122       32.4079   -2.1124   -9.2295 H         1 UNK         0.0812 
    123 H123       30.7568   -2.7120   -9.1865 H         1 UNK         0.0812 
    124 H124       31.1739   -1.2139   -8.3547 H         1 UNK         0.0812 
    125 H125       30.4578    1.4381  -10.0927 H         1 UNK         0.3205 
    126 H126       31.3944    3.4236   -9.8890 H         1 UNK         0.0754 
    127 H127       33.2290    4.1583  -11.3637 H         1 UNK         0.0769 
    128 H128       32.0814    3.2004  -12.2860 H         1 UNK         0.0769 
    129 H129       33.6202    2.4994  -11.7865 H         1 UNK         0.0769 
    130 H130       31.6495    1.8327   -7.8292 H         1 UNK         0.2981 
    131 H131       34.3270    1.4421   -6.8742 H         1 UNK         0.0541 
    132 H132       32.2714    4.3027   -6.7568 H         1 UNK         0.3459 
    133 H133       33.2591    5.1641   -5.6026 H         1 UNK         0.3459 
    134 H134       32.0745    0.1571   -6.2930 H         1 UNK         0.0612 
    135 H135       31.8689    1.3768   -5.0739 H         1 UNK         0.0612 
    136 H136       33.5103   -1.7306   -6.3238 H         1 UNK         0.0624 
    137 H137       34.4961   -2.2963   -5.0036 H         1 UNK         0.0624 
@<TRIPOS>BOND
     1    1    2 1    
     2    1   72 1    
     3    1   73 1    
     4    1   74 1    
     5    2    3 2    
     6    2    4 am   BACKBONE|DICT|INTERRES
     7    4    5 1    
     8    4   75 1    
     9    5    6 1    
    10    5   35 1    
    11    5   76 1    
    12    6    7 1    
    13    6   77 1    
    14    6   78 1    
    15    7    8 1    
    16    8    9 1    
    17    8   79 1    
    18    8   80 1    
    19    9   10 ar   
    20    9   14 ar   
    21   10   11 ar   
    22   10   81 1    
    23   11   12 ar   
    24   11   71 1    
    25   12   13 ar   
    26   12   82 1    
    27   13   14 ar   
    28   13   15 1    
    29   14   83 1    
    30   15   16 1    
    31   15   84 1    
    32   15   85 1    
    33   16   17 1    
    34   17   18 1    
    35   17   86 1    
    36   17   87 1    
    37   18   19 1    
    38   18   37 1    
    39   18   88 1    
    40   19   20 am   BACKBONE|DICT|INTERRES
    41   19   89 1    
    42   20   21 2    
    43   20   22 1    
    44   22   23 1    
    45   22   24 1    
    46   22   90 1    
    47   23   91 1    
    48   23   92 1    
    49   23   93 1    
    50   24   25 am   BACKBONE|DICT|INTERRES
    51   24   94 1    
    52   25   26 2    
    53   25   27 1    
    54   27   28 1    
    55   27   29 1    
    56   27   95 1    
    57   28   96 1    
    58   28   97 1    
    59   28   98 1    
    60   29   30 am   BACKBONE|DICT|INTERRES
    61   29   99 1    
    62   30   31 2    
    63   30   32 1    
    64   32   33 1    
    65   32   34 1    
    66   32  100 1    
    67   33  101 1    
    68   33  102 1    
    69   33  103 1    
    70   34   35 am   BACKBONE|DICT|INTERRES
    71   34  104 1    
    72   35   36 2    
    73   37   38 2    
    74   37   39 am   BACKBONE|DICT|INTERRES
    75   39   40 1    
    76   39  105 1    
    77   40   41 1    
    78   40   42 1    
    79   40  106 1    
    80   41  107 1    
    81   41  108 1    
    82   41  109 1    
    83   42   43 2    
    84   42   44 am   BACKBONE|DICT|INTERRES
    85   44   45 1    
    86   44  110 1    
    87   45   46 1    
    88   45   47 1    
    89   45  111 1    
    90   46  112 1    
    91   46  113 1    
    92   46  114 1    
    93   47   48 2    
    94   47   49 am   BACKBONE|DICT|INTERRES
    95   49   50 1    
    96   49  115 1    
    97   50   51 1    
    98   50   52 1    
    99   50  116 1    
   100   51  117 1    
   101   51  118 1    
   102   51  119 1    
   103   52   53 2    
   104   52   54 am   BACKBONE|DICT|INTERRES
   105   54   55 1    
   106   54  120 1    
   107   55   56 1    
   108   55   57 1    
   109   55  121 1    
   110   56  122 1    
   111   56  123 1    
   112   56  124 1    
   113   57   58 2    
   114   57   59 am   BACKBONE|DICT|INTERRES
   115   59   60 1    
   116   59  125 1    
   117   60   61 1    
   118   60   62 1    
   119   60  126 1    
   120   61  127 1    
   121   61  128 1    
   122   61  129 1    
   123   62   63 2    
   124   62   64 am   BACKBONE|DICT|INTERRES
   125   64   65 1    
   126   64  130 1    
   127   65   66 1    
   128   65   69 1    
   129   65  131 1    
   130   66   67 am   BACKBONE|DICT|INTERRES
   131   66   68 2    
   132   67  132 1    
   133   67  133 1    
   134   69   70 1    
   135   69  134 1    
   136   69  135 1    
   137   70   71 1    
   138   71  136 1    
   139   71  137 1    
@<TRIPOS>SUBSTRUCTURE
     1 UNK         1 GROUP             0       ****    0 ROOT    
