@<TRIPOS>MOLECULE
3R137
137   139    1
SMALL
USER_CHARGES


@<TRIPOS>ATOM
      1 CA         28.3680   -2.2731    2.5385 C.3       0 UNK        -0.2020 
      2 C          27.7210   -2.7698    1.2542 C.2       0 UNK         0.4855 
      3 O          26.7081   -3.4667    1.3150 O.2       0 UNK        -0.5197 
      4 N          28.2984   -2.4065    0.0986 N.am      1 UNK        -0.4892 
      5 CA         27.8656   -2.7913   -1.2580 C.3       1 UNK         0.0835 
      6 C6         27.9736   -4.3177   -1.5384 C.3       12 UNK        -0.0855 
      7 S7         29.6456   -4.9745   -1.2060 S.3       12 UNK        -0.2931 
      8 C8         30.2588   -5.3411   -2.8863 C.3       12 UNK         0.0378 
      9 C9         30.4158   -4.1177   -3.7883 C.ar      12 UNK        -0.0802 
     10 C10        30.1315   -4.2358   -5.1517 C.ar      12 UNK        -0.0944 
     11 C11        30.3158   -3.1528   -6.0139 C.ar      12 UNK        -0.0787 
     12 C12        30.7657   -1.9330   -5.5010 C.ar      12 UNK        -0.0862 
     13 C13        31.0359   -1.7873   -4.1364 C.ar      12 UNK        -0.0733 
     14 C14        30.8824   -2.8931   -3.2935 C.ar      12 UNK        -0.0832 
     15 C15        31.5240   -0.4609   -3.5530 C.3       12 UNK         0.0240 
     16 S16        30.7259    1.0299   -4.2511 S.3       12 UNK        -0.2522 
     17 C17        28.9487    0.6972   -3.9816 C.3       12 UNK        -0.0967 
     18 CA         28.2106    0.4903   -5.3316 C.3       5 UNK         0.0660 
     19 N          27.2550   -0.6184   -5.2871 N.am      5 UNK        -0.4015 
     20 C          26.8762   -1.3229   -6.3633 C.2       4 UNK         0.4946 
     21 O          27.2873   -1.1119   -7.5044 O.2       4 UNK        -0.5353 
     22 CA         25.8239   -2.4194   -6.1329 C.3       4 UNK         0.0277 
     23 CB         26.4788   -3.7011   -5.5939 C.3       4 UNK        -0.1981 
     24 N          24.7613   -1.9820   -5.2241 N.am      4 UNK        -0.4209 
     25 C          23.8611   -1.0373   -5.5381 C.2       3 UNK         0.4942 
     26 O          23.8200   -0.4751   -6.6315 O.2       3 UNK        -0.5208 
     27 CA         22.8622   -0.6087   -4.4486 C.3       3 UNK         0.0250 
     28 CB         21.5765   -1.4449   -4.5444 C.3       3 UNK        -0.1990 
     29 N          23.3861   -0.6792   -3.0826 N.am      3 UNK        -0.4232 
     30 C          24.4916   -0.0701   -2.6314 C.2       2 UNK         0.4993 
     31 O          25.2280    0.6249   -3.3339 O.2       2 UNK        -0.5286 
     32 CA         24.8814   -0.3162   -1.1629 C.3       2 UNK         0.0209 
     33 CB         23.7936   -1.0306   -0.3279 C.3       2 UNK        -0.1931 
     34 N          26.1518   -1.0424   -1.0508 N.am      2 UNK        -0.4546 
     35 C          26.4787   -2.2130   -1.6246 C.2       1 UNK         0.5154 
     36 O          25.7470   -2.8154   -2.4141 O.2       1 UNK        -0.5181 
     37 C          27.5646    1.7852   -5.8636 C.2       5 UNK         0.5014 
     38 O          28.2598    2.6049   -6.4607 O.2       5 UNK        -0.5248 
     39 N          26.2461    1.9467   -5.6783 N.am      6 UNK        -0.4434 
     40 CA         25.4584    3.0012   -6.3209 C.3       6 UNK         0.0363 
     41 CB         24.0542    3.0584   -5.7003 C.3       6 UNK        -0.1936 
     42 C          25.3751    2.8120   -7.8473 C.2       6 UNK         0.5081 
     43 O          25.4516    3.7979   -8.5810 O.2       6 UNK        -0.5248 
     44 N          25.2311    1.5563   -8.2970 N.am      7 UNK        -0.4718 
     45 CA         25.2091    1.1780   -9.7107 C.3       7 UNK         0.0273 
     46 CB         24.6568   -0.2489   -9.8597 C.3       7 UNK        -0.1935 
     47 C          26.5841    1.3056  -10.3872 C.2       7 UNK         0.5018 
     48 O          26.6561    1.8506  -11.4899 O.2       7 UNK        -0.5186 
     49 N          27.6406    0.8080   -9.7311 N.am      8 UNK        -0.4240 
     50 CA         29.0132    0.8377  -10.2307 C.3       8 UNK         0.0235 
     51 CB         29.3806   -0.5473  -10.7948 C.3       8 UNK        -0.2000 
     52 C          29.9462    1.2612   -9.0928 C.2       8 UNK         0.4941 
     53 O          30.3167    0.4243   -8.2681 O.2       8 UNK        -0.5273 
     54 N          30.3070    2.5519   -9.0634 N.am      9 UNK        -0.4262 
     55 CA         31.1927    3.1609   -8.0653 C.3       9 UNK         0.0264 
     56 CB         31.3205    4.6677   -8.3452 C.3       9 UNK        -0.1955 
     57 C          32.5717    2.4822   -8.0336 C.2       9 UNK         0.5031 
     58 O          33.2959    2.5405   -9.0293 O.2       9 UNK        -0.5390 
     59 N          32.8723    1.8214   -6.9062 N.am      10 UNK        -0.4204 
     60 CA         34.0441    0.9704   -6.6521 C.3       10 UNK         0.0237 
     61 CB         35.3565    1.7795   -6.7364 C.3       10 UNK        -0.1985 
     62 C          34.0888   -0.3205   -7.5007 C.2       10 UNK         0.4970 
     63 O          35.1272   -0.9837   -7.5263 O.2       10 UNK        -0.4914 
     64 N          32.9641   -0.6799   -8.1342 N.am      11 UNK        -0.4285 
     65 CA         32.7592   -1.8776   -8.9569 C.3       11 UNK         0.1007 
     66 C          33.6128   -1.9320  -10.2590 C.2       11 UNK         0.5703 
     67 N          33.6203   -3.0619  -10.9543 N.am      11 UNK        -0.7361 
     68 O          34.2266   -0.9530  -10.6796 O.2       11 UNK        -0.4986 
     69 C69        32.7989   -3.1816   -8.1014 C.3       12 UNK        -0.0947 
     70 S70        31.3366   -4.2358   -8.3730 S.3       12 UNK        -0.2240 
     71 C71        30.0334   -3.3008   -7.5019 C.3       12 UNK         0.0194 
     72 H72        28.6685   -3.1184    3.1569 H         1 UNK         0.0906 
     73 H73        29.2516   -1.6655    2.3440 H         1 UNK         0.0906 
     74 H74        27.6601   -1.6701    3.1066 H         1 UNK         0.0906 
     75 H75        29.1350   -1.8402    0.1350 H         1 UNK         0.3140 
     76 H76        28.5528   -2.2926   -1.9408 H         1 UNK         0.1085 
     77 H77        27.7087   -4.5401   -2.5733 H         1 UNK         0.0836 
     78 H78        27.2607   -4.8708   -0.9247 H         1 UNK         0.0836 
     79 H79        29.5884   -6.0702   -3.3446 H         1 UNK         0.0731 
     80 H80        31.2301   -5.8297   -2.8008 H         1 UNK         0.0731 
     81 H81        29.7874   -5.1795   -5.5527 H         1 UNK         0.1312 
     82 H82        30.9070   -1.0965   -6.1702 H         1 UNK         0.1406 
     83 H83        31.1256   -2.8005   -2.2439 H         1 UNK         0.1631 
     84 H84        32.6000   -0.3877   -3.7133 H         1 UNK         0.0717 
     85 H85        31.3738   -0.4453   -2.4724 H         1 UNK         0.0717 
     86 H86        28.8565   -0.1871   -3.3506 H         1 UNK         0.0934 
     87 H87        28.5138    1.5113   -3.3978 H         1 UNK         0.0934 
     88 H88        28.9516    0.2107   -6.0809 H         1 UNK         0.0739 
     89 H89        26.7950   -0.7904   -4.4045 H         1 UNK         0.3093 
     90 H90        25.3659   -2.6522   -7.0969 H         1 UNK         0.0818 
     91 H91        27.0524   -3.5144   -4.6860 H         1 UNK         0.0819 
     92 H92        25.7360   -4.4670   -5.3709 H         1 UNK         0.0819 
     93 H93        27.1647   -4.1229   -6.3277 H         1 UNK         0.0819 
     94 H94        24.7651   -2.3714   -4.2871 H         1 UNK         0.3041 
     95 H95        22.6011    0.4337   -4.6366 H         1 UNK         0.0784 
     96 H96        21.1496   -1.3904   -5.5471 H         1 UNK         0.0793 
     97 H97        21.7617   -2.4975   -4.3259 H         1 UNK         0.0793 
     98 H98        20.8152   -1.0857   -3.8515 H         1 UNK         0.0793 
     99 H99        22.8722   -1.2576   -2.4340 H         1 UNK         0.3024 
    100 H100       25.0402    0.6718   -0.7273 H         1 UNK         0.1171 
    101 H101       24.0926   -1.0990    0.7183 H         1 UNK         0.0786 
    102 H102       22.8498   -0.4837   -0.3511 H         1 UNK         0.0786 
    103 H103       23.6045   -2.0470   -0.6758 H         1 UNK         0.0786 
    104 H104       26.8390   -0.6234   -0.4401 H         1 UNK         0.2977 
    105 H105       25.7534    1.3001   -5.0684 H         1 UNK         0.3127 
    106 H106       25.9541    3.9548   -6.1264 H         1 UNK         0.0770 
    107 H107       23.4728    2.1684   -5.9377 H         1 UNK         0.0814 
    108 H108       24.0991    3.1543   -4.6152 H         1 UNK         0.0814 
    109 H109       23.4991    3.9165   -6.0811 H         1 UNK         0.0814 
    110 H110       25.0975    0.8079   -7.6248 H         1 UNK         0.2983 
    111 H111       24.5257    1.8558  -10.2274 H         1 UNK         0.0947 
    112 H112       24.6205   -0.5466  -10.9085 H         1 UNK         0.0806 
    113 H113       23.6429   -0.3233   -9.4663 H         1 UNK         0.0806 
    114 H114       25.2720   -0.9795   -9.3337 H         1 UNK         0.0806 
    115 H115       27.5040    0.3422   -8.8362 H         1 UNK         0.3000 
    116 H116       29.1152    1.5669  -11.0374 H         1 UNK         0.0850 
    117 H117       30.4198   -0.5724  -11.1243 H         1 UNK         0.0810 
    118 H118       28.7605   -0.7986  -11.6552 H         1 UNK         0.0810 
    119 H119       29.2493   -1.3337  -10.0509 H         1 UNK         0.0810 
    120 H120       29.9572    3.1676   -9.7825 H         1 UNK         0.3040 
    121 H121       30.7230    3.0408   -7.0877 H         1 UNK         0.0766 
    122 H122       31.9717    5.1457   -7.6121 H         1 UNK         0.0812 
    123 H123       30.3518    5.1647   -8.2890 H         1 UNK         0.0812 
    124 H124       31.7432    4.8618   -9.3320 H         1 UNK         0.0812 
    125 H125       32.1773    1.8173   -6.1693 H         1 UNK         0.3205 
    126 H126       33.9398    0.6338   -5.6198 H         1 UNK         0.0754 
    127 H127       36.2026    1.1915   -6.3787 H         1 UNK         0.0769 
    128 H128       35.3083    2.6796   -6.1235 H         1 UNK         0.0769 
    129 H129       35.5832    2.0803   -7.7596 H         1 UNK         0.0769 
    130 H130       32.1500   -0.0749   -8.0731 H         1 UNK         0.2981 
    131 H131       31.7462   -1.7366   -9.3307 H         1 UNK         0.0541 
    132 H132       34.1509   -3.1111  -11.8098 H         1 UNK         0.3459 
    133 H133       33.1012   -3.8653  -10.6344 H         1 UNK         0.3459 
    134 H134       32.8574   -2.9595   -7.0358 H         1 UNK         0.0612 
    135 H135       33.6964   -3.7687   -8.3030 H         1 UNK         0.0612 
    136 H136       29.9117   -2.3207   -7.9637 H         1 UNK         0.0624 
    137 H137       29.0839   -3.8166   -7.6438 H         1 UNK         0.0624 
@<TRIPOS>BOND
     1    1    2 1    
     2    1   72 1    
     3    1   73 1    
     4    1   74 1    
     5    2    3 2    
     6    2    4 am   BACKBONE|DICT|INTERRES
     7    4    5 1    
     8    4   75 1    
     9    5    6 1    
    10    5   35 1    
    11    5   76 1    
    12    6    7 1    
    13    6   77 1    
    14    6   78 1    
    15    7    8 1    
    16    8    9 1    
    17    8   79 1    
    18    8   80 1    
    19    9   10 ar   
    20    9   14 ar   
    21   10   11 ar   
    22   10   81 1    
    23   11   12 ar   
    24   11   71 1    
    25   12   13 ar   
    26   12   82 1    
    27   13   14 ar   
    28   13   15 1    
    29   14   83 1    
    30   15   16 1    
    31   15   84 1    
    32   15   85 1    
    33   16   17 1    
    34   17   18 1    
    35   17   86 1    
    36   17   87 1    
    37   18   19 1    
    38   18   37 1    
    39   18   88 1    
    40   19   20 am   BACKBONE|DICT|INTERRES
    41   19   89 1    
    42   20   21 2    
    43   20   22 1    
    44   22   23 1    
    45   22   24 1    
    46   22   90 1    
    47   23   91 1    
    48   23   92 1    
    49   23   93 1    
    50   24   25 am   BACKBONE|DICT|INTERRES
    51   24   94 1    
    52   25   26 2    
    53   25   27 1    
    54   27   28 1    
    55   27   29 1    
    56   27   95 1    
    57   28   96 1    
    58   28   97 1    
    59   28   98 1    
    60   29   30 am   BACKBONE|DICT|INTERRES
    61   29   99 1    
    62   30   31 2    
    63   30   32 1    
    64   32   33 1    
    65   32   34 1    
    66   32  100 1    
    67   33  101 1    
    68   33  102 1    
    69   33  103 1    
    70   34   35 am   BACKBONE|DICT|INTERRES
    71   34  104 1    
    72   35   36 2    
    73   37   38 2    
    74   37   39 am   BACKBONE|DICT|INTERRES
    75   39   40 1    
    76   39  105 1    
    77   40   41 1    
    78   40   42 1    
    79   40  106 1    
    80   41  107 1    
    81   41  108 1    
    82   41  109 1    
    83   42   43 2    
    84   42   44 am   BACKBONE|DICT|INTERRES
    85   44   45 1    
    86   44  110 1    
    87   45   46 1    
    88   45   47 1    
    89   45  111 1    
    90   46  112 1    
    91   46  113 1    
    92   46  114 1    
    93   47   48 2    
    94   47   49 am   BACKBONE|DICT|INTERRES
    95   49   50 1    
    96   49  115 1    
    97   50   51 1    
    98   50   52 1    
    99   50  116 1    
   100   51  117 1    
   101   51  118 1    
   102   51  119 1    
   103   52   53 2    
   104   52   54 am   BACKBONE|DICT|INTERRES
   105   54   55 1    
   106   54  120 1    
   107   55   56 1    
   108   55   57 1    
   109   55  121 1    
   110   56  122 1    
   111   56  123 1    
   112   56  124 1    
   113   57   58 2    
   114   57   59 am   BACKBONE|DICT|INTERRES
   115   59   60 1    
   116   59  125 1    
   117   60   61 1    
   118   60   62 1    
   119   60  126 1    
   120   61  127 1    
   121   61  128 1    
   122   61  129 1    
   123   62   63 2    
   124   62   64 am   BACKBONE|DICT|INTERRES
   125   64   65 1    
   126   64  130 1    
   127   65   66 1    
   128   65   69 1    
   129   65  131 1    
   130   66   67 am   BACKBONE|DICT|INTERRES
   131   66   68 2    
   132   67  132 1    
   133   67  133 1    
   134   69   70 1    
   135   69  134 1    
   136   69  135 1    
   137   70   71 1    
   138   71  136 1    
   139   71  137 1    
@<TRIPOS>SUBSTRUCTURE
     1 UNK         1 GROUP             0       ****    0 ROOT    
