@<TRIPOS>MOLECULE
3R137
137   139    1
SMALL
USER_CHARGES


@<TRIPOS>ATOM
      1 CA         27.7236   -5.0585    0.2013 C.3       0 UNK        -0.2020 
      2 C          27.3890   -3.7913   -0.5694 C.2       0 UNK         0.4855 
      3 O          27.4646   -3.7887   -1.7964 O.2       0 UNK        -0.5197 
      4 N          27.0013   -2.7221    0.1390 N.am      1 UNK        -0.4892 
      5 CA         26.6928   -1.3617   -0.3440 C.3       1 UNK         0.0835 
      6 C6         27.8711   -0.6675   -1.0804 C.3       12 UNK        -0.0855 
      7 S7         29.3960   -0.6090   -0.0776 S.3       12 UNK        -0.2931 
      8 C8         30.5892    0.0801   -1.2772 C.3       12 UNK         0.0378 
      9 C9         31.3446   -0.9491   -2.1219 C.ar      12 UNK        -0.0802 
     10 C10        32.5967   -0.5982   -2.6398 C.ar      12 UNK        -0.0944 
     11 C11        33.3297   -1.4964   -3.4218 C.ar      12 UNK        -0.0787 
     12 C12        32.8001   -2.7589   -3.6948 C.ar      12 UNK        -0.0862 
     13 C13        31.5436   -3.1198   -3.2029 C.ar      12 UNK        -0.0733 
     14 C14        30.8259   -2.2180   -2.4122 C.ar      12 UNK        -0.0832 
     15 C15        30.9668   -4.4876   -3.5287 C.3       12 UNK         0.0240 
     16 S16        30.2834   -4.5381   -5.2142 S.3       12 UNK        -0.2522 
     17 C17        28.7066   -3.6461   -5.0059 C.3       12 UNK        -0.0967 
     18 CA         28.4822   -2.5641   -6.0955 C.3       5 UNK         0.0660 
     19 N          27.1036   -2.5960   -6.5971 N.am      5 UNK        -0.4015 
     20 C          26.7224   -3.1434   -7.7605 C.2       4 UNK         0.4946 
     21 O          27.5044   -3.6715   -8.5521 O.2       4 UNK        -0.5353 
     22 CA         25.2216   -3.1337   -8.1215 C.3       4 UNK         0.0277 
     23 CB         24.6577   -4.5651   -8.1104 C.3       4 UNK        -0.1981 
     24 N          24.3953   -2.3004   -7.2469 N.am      4 UNK        -0.4209 
     25 C          24.3570   -0.9612   -7.2598 C.2       3 UNK         0.4942 
     26 O          24.9661   -0.2666   -8.0717 O.2       3 UNK        -0.5208 
     27 CA         23.5229   -0.2763   -6.1578 C.3       3 UNK         0.0250 
     28 CB         22.1450    0.1266   -6.7069 C.3       3 UNK        -0.1990 
     29 N          23.3435   -1.0572   -4.9216 N.am      3 UNK        -0.4232 
     30 C          24.3332   -1.5626   -4.1717 C.2       2 UNK         0.4993 
     31 O          25.5218   -1.5096   -4.4942 O.2       2 UNK        -0.5286 
     32 CA         23.9347   -2.3074   -2.8894 C.3       2 UNK         0.0209 
     33 CB         23.5805   -3.7680   -3.2128 C.3       2 UNK        -0.1931 
     34 N          25.0393   -2.2958   -1.9296 N.am      2 UNK        -0.4546 
     35 C          25.3935   -1.2494   -1.1753 C.2       1 UNK         0.5154 
     36 O          24.7305   -0.2128   -1.1103 O.2       1 UNK        -0.5181 
     37 C          28.8838   -1.1511   -5.6200 C.2       5 UNK         0.5014 
     38 O          30.0479   -0.7795   -5.7656 O.2       5 UNK        -0.5248 
     39 N          27.9259   -0.3662   -5.1023 N.am      6 UNK        -0.4434 
     40 CA         28.0702    1.0447   -4.7246 C.3       6 UNK         0.0363 
     41 CB         26.7490    1.5178   -4.0919 C.3       6 UNK        -0.1936 
     42 C          28.4536    1.9576   -5.9062 C.2       6 UNK         0.5081 
     43 O          28.5064    1.5049   -7.0495 O.2       6 UNK        -0.5248 
     44 N          28.6842    3.2465   -5.6184 N.am      7 UNK        -0.4718 
     45 CA         29.1861    4.2858   -6.5347 C.3       7 UNK         0.0273 
     46 CB         29.2094    5.6308   -5.7899 C.3       7 UNK        -0.1935 
     47 C          28.4631    4.4432   -7.8904 C.2       7 UNK         0.5018 
     48 O          29.0669    4.9719   -8.8240 O.2       7 UNK        -0.5186 
     49 N          27.2122    3.9716   -7.9922 N.am      8 UNK        -0.4240 
     50 CA         26.4622    3.8557   -9.2472 C.3       8 UNK         0.0235 
     51 CB         25.0038    3.4824   -8.9337 C.3       8 UNK        -0.2000 
     52 C          27.0801    2.8407  -10.2315 C.2       8 UNK         0.4941 
     53 O          27.0294    3.0702  -11.4407 O.2       8 UNK        -0.5273 
     54 N          27.6572    1.7559   -9.6988 N.am      9 UNK        -0.4262 
     55 CA         28.4023    0.7342  -10.4371 C.3       9 UNK         0.0264 
     56 CB         27.9678   -0.6515   -9.9404 C.3       9 UNK        -0.1955 
     57 C          29.9208    0.8998  -10.2582 C.2       9 UNK         0.5031 
     58 O          30.6670    0.5628  -11.1775 O.2       9 UNK        -0.5390 
     59 N          30.3408    1.4125   -9.0912 N.am      10 UNK        -0.4204 
     60 CA         31.7125    1.6958   -8.6610 C.3       10 UNK         0.0237 
     61 CB         32.3572    2.7854   -9.5441 C.3       10 UNK        -0.1985 
     62 C          32.5611    0.4178   -8.5482 C.2       10 UNK         0.4970 
     63 O          33.5152    0.2362   -9.3069 O.2       10 UNK        -0.4914 
     64 N          32.1854   -0.4396   -7.5910 N.am      11 UNK        -0.4285 
     65 CA         32.8567   -1.6965   -7.2177 C.3       11 UNK         0.1007 
     66 C          32.6944   -2.8561   -8.2448 C.2       11 UNK         0.5703 
     67 N          31.8638   -2.7251   -9.2727 N.am      11 UNK        -0.7361 
     68 O          33.3107   -3.9084   -8.0941 O.2       11 UNK        -0.4986 
     69 C69        34.3335   -1.5101   -6.7543 C.3       12 UNK        -0.0947 
     70 S70        34.5708   -0.1798   -5.5219 S.3       12 UNK        -0.2240 
     71 C71        34.6975   -1.1032   -3.9591 C.3       12 UNK         0.0194 
     72 H72        27.6110   -4.9254    1.2771 H         1 UNK         0.0906 
     73 H73        27.0688   -5.8713   -0.1116 H         1 UNK         0.0906 
     74 H74        28.7533   -5.3545    0.0022 H         1 UNK         0.0906 
     75 H75        26.9342   -2.8217    1.1428 H         1 UNK         0.3140 
     76 H76        26.5010   -0.7827    0.5613 H         1 UNK         0.1085 
     77 H77        27.6060    0.3645   -1.3165 H         1 UNK         0.0836 
     78 H78        28.0709   -1.1521   -2.0372 H         1 UNK         0.0836 
     79 H79        31.3107    0.6682   -0.7077 H         1 UNK         0.0731 
     80 H80        30.0818    0.7830   -1.9380 H         1 UNK         0.0731 
     81 H81        33.0071    0.3811   -2.4341 H         1 UNK         0.1312 
     82 H82        33.3574   -3.4569   -4.3047 H         1 UNK         0.1406 
     83 H83        29.8614   -2.5154   -2.0290 H         1 UNK         0.1631 
     84 H84        30.1954   -4.7702   -2.8100 H         1 UNK         0.0717 
     85 H85        31.7517   -5.2407   -3.4450 H         1 UNK         0.0717 
     86 H86        27.9217   -4.4034   -5.0456 H         1 UNK         0.0934 
     87 H87        28.6337   -3.2217   -4.0047 H         1 UNK         0.0934 
     88 H88        29.1490   -2.7712   -6.9356 H         1 UNK         0.0739 
     89 H89        26.3966   -2.1994   -5.9843 H         1 UNK         0.3093 
     90 H90        25.1411   -2.7428   -9.1382 H         1 UNK         0.0818 
     91 H91        24.7097   -5.0122   -7.1169 H         1 UNK         0.0819 
     92 H92        23.6174   -4.5855   -8.4358 H         1 UNK         0.0819 
     93 H93        25.2177   -5.2119   -8.7876 H         1 UNK         0.0819 
     94 H94        23.8547   -2.7808   -6.5428 H         1 UNK         0.3041 
     95 H95        24.0544    0.6366   -5.8852 H         1 UNK         0.0784 
     96 H96        22.2455    0.7312   -7.6098 H         1 UNK         0.0793 
     97 H97        21.5865    0.7215   -5.9840 H         1 UNK         0.0793 
     98 H98        21.5422   -0.7454   -6.9642 H         1 UNK         0.0793 
     99 H99        22.3914   -1.1692   -4.6024 H         1 UNK         0.3024 
    100 H100       23.0688   -1.8127   -2.4433 H         1 UNK         0.1171 
    101 H101       23.2964   -4.3139   -2.3128 H         1 UNK         0.0786 
    102 H102       24.4194   -4.2943   -3.6710 H         1 UNK         0.0786 
    103 H103       22.7390   -3.8273   -3.9042 H         1 UNK         0.0786 
    104 H104       25.7136   -3.0535   -1.9917 H         1 UNK         0.2977 
    105 H105       26.9993   -0.7628   -4.9532 H         1 UNK         0.3127 
    106 H106       28.8672    1.1053   -3.9824 H         1 UNK         0.0770 
    107 H107       25.9503    1.5727   -4.8315 H         1 UNK         0.0814 
    108 H108       26.8487    2.5074   -3.6455 H         1 UNK         0.0814 
    109 H109       26.4167    0.8460   -3.3020 H         1 UNK         0.0814 
    110 H110       28.5871    3.5334   -4.6548 H         1 UNK         0.2983 
    111 H111       30.2173    4.0176   -6.7724 H         1 UNK         0.0947 
    112 H112       28.2097    5.9342   -5.4764 H         1 UNK         0.0806 
    113 H113       29.6065    6.4249   -6.4243 H         1 UNK         0.0806 
    114 H114       29.8418    5.5851   -4.9031 H         1 UNK         0.0806 
    115 H115       26.8003    3.5518   -7.1720 H         1 UNK         0.3000 
    116 H116       26.4698    4.8335   -9.7337 H         1 UNK         0.0850 
    117 H117       24.4153    3.4095   -9.8494 H         1 UNK         0.0810 
    118 H118       24.5275    4.2327   -8.3025 H         1 UNK         0.0810 
    119 H119       24.9334    2.5196   -8.4253 H         1 UNK         0.0810 
    120 H120       27.6727    1.6673   -8.6853 H         1 UNK         0.3040 
    121 H121       28.1796    0.8022  -11.5039 H         1 UNK         0.0766 
    122 H122       26.9008   -0.8108  -10.0963 H         1 UNK         0.0812 
    123 H123       28.1708   -0.7745   -8.8758 H         1 UNK         0.0812 
    124 H124       28.4965   -1.4458  -10.4691 H         1 UNK         0.0812 
    125 H125       29.6326    1.5465   -8.3688 H         1 UNK         0.3205 
    126 H126       31.6362    2.1035   -7.6517 H         1 UNK         0.0754 
    127 H127       33.3441    3.0564   -9.1672 H         1 UNK         0.0769 
    128 H128       31.7525    3.6925   -9.5552 H         1 UNK         0.0769 
    129 H129       32.4840    2.4549  -10.5754 H         1 UNK         0.0769 
    130 H130       31.3641   -0.2409   -7.0242 H         1 UNK         0.2981 
    131 H131       32.3021   -2.0460   -6.3482 H         1 UNK         0.0541 
    132 H132       31.7587   -3.4876   -9.9226 H         1 UNK         0.3459 
    133 H133       31.3730   -1.8588   -9.4217 H         1 UNK         0.3459 
    134 H134       34.7213   -2.4426   -6.3417 H         1 UNK         0.0612 
    135 H135       34.9691   -1.2813   -7.6108 H         1 UNK         0.0612 
    136 H136       35.2069   -0.4750   -3.2270 H         1 UNK         0.0624 
    137 H137       35.3304   -1.9816   -4.0932 H         1 UNK         0.0624 
@<TRIPOS>BOND
     1    1    2 1    
     2    1   72 1    
     3    1   73 1    
     4    1   74 1    
     5    2    3 2    
     6    2    4 am   BACKBONE|DICT|INTERRES
     7    4    5 1    
     8    4   75 1    
     9    5    6 1    
    10    5   35 1    
    11    5   76 1    
    12    6    7 1    
    13    6   77 1    
    14    6   78 1    
    15    7    8 1    
    16    8    9 1    
    17    8   79 1    
    18    8   80 1    
    19    9   10 ar   
    20    9   14 ar   
    21   10   11 ar   
    22   10   81 1    
    23   11   12 ar   
    24   11   71 1    
    25   12   13 ar   
    26   12   82 1    
    27   13   14 ar   
    28   13   15 1    
    29   14   83 1    
    30   15   16 1    
    31   15   84 1    
    32   15   85 1    
    33   16   17 1    
    34   17   18 1    
    35   17   86 1    
    36   17   87 1    
    37   18   19 1    
    38   18   37 1    
    39   18   88 1    
    40   19   20 am   BACKBONE|DICT|INTERRES
    41   19   89 1    
    42   20   21 2    
    43   20   22 1    
    44   22   23 1    
    45   22   24 1    
    46   22   90 1    
    47   23   91 1    
    48   23   92 1    
    49   23   93 1    
    50   24   25 am   BACKBONE|DICT|INTERRES
    51   24   94 1    
    52   25   26 2    
    53   25   27 1    
    54   27   28 1    
    55   27   29 1    
    56   27   95 1    
    57   28   96 1    
    58   28   97 1    
    59   28   98 1    
    60   29   30 am   BACKBONE|DICT|INTERRES
    61   29   99 1    
    62   30   31 2    
    63   30   32 1    
    64   32   33 1    
    65   32   34 1    
    66   32  100 1    
    67   33  101 1    
    68   33  102 1    
    69   33  103 1    
    70   34   35 am   BACKBONE|DICT|INTERRES
    71   34  104 1    
    72   35   36 2    
    73   37   38 2    
    74   37   39 am   BACKBONE|DICT|INTERRES
    75   39   40 1    
    76   39  105 1    
    77   40   41 1    
    78   40   42 1    
    79   40  106 1    
    80   41  107 1    
    81   41  108 1    
    82   41  109 1    
    83   42   43 2    
    84   42   44 am   BACKBONE|DICT|INTERRES
    85   44   45 1    
    86   44  110 1    
    87   45   46 1    
    88   45   47 1    
    89   45  111 1    
    90   46  112 1    
    91   46  113 1    
    92   46  114 1    
    93   47   48 2    
    94   47   49 am   BACKBONE|DICT|INTERRES
    95   49   50 1    
    96   49  115 1    
    97   50   51 1    
    98   50   52 1    
    99   50  116 1    
   100   51  117 1    
   101   51  118 1    
   102   51  119 1    
   103   52   53 2    
   104   52   54 am   BACKBONE|DICT|INTERRES
   105   54   55 1    
   106   54  120 1    
   107   55   56 1    
   108   55   57 1    
   109   55  121 1    
   110   56  122 1    
   111   56  123 1    
   112   56  124 1    
   113   57   58 2    
   114   57   59 am   BACKBONE|DICT|INTERRES
   115   59   60 1    
   116   59  125 1    
   117   60   61 1    
   118   60   62 1    
   119   60  126 1    
   120   61  127 1    
   121   61  128 1    
   122   61  129 1    
   123   62   63 2    
   124   62   64 am   BACKBONE|DICT|INTERRES
   125   64   65 1    
   126   64  130 1    
   127   65   66 1    
   128   65   69 1    
   129   65  131 1    
   130   66   67 am   BACKBONE|DICT|INTERRES
   131   66   68 2    
   132   67  132 1    
   133   67  133 1    
   134   69   70 1    
   135   69  134 1    
   136   69  135 1    
   137   70   71 1    
   138   71  136 1    
   139   71  137 1    
@<TRIPOS>SUBSTRUCTURE
     1 UNK         1 GROUP             0       ****    0 ROOT    
