@<TRIPOS>MOLECULE
3R137
137   139    1
SMALL
USER_CHARGES


@<TRIPOS>ATOM
      1 CA         28.2045   -2.2839    2.7713 C.3       0 UNK        -0.2020 
      2 C          28.0143   -1.2234    1.6973 C.2       0 UNK         0.4855 
      3 O          27.7245   -0.0712    2.0201 O.2       0 UNK        -0.5197 
      4 N          28.1768   -1.6039    0.4230 N.am      1 UNK        -0.4892 
      5 CA         28.0266   -0.7203   -0.7427 C.3       1 UNK         0.0835 
      6 C6         28.6583   -1.3404   -2.0143 C.3       12 UNK        -0.0855 
      7 S7         30.4800   -1.3599   -1.8912 S.3       12 UNK        -0.2931 
      8 C8         30.8603   -3.1253   -1.6539 C.3       12 UNK         0.0378 
      9 C9         31.1448   -3.8171   -2.9787 C.ar      12 UNK        -0.0802 
     10 C10        32.4613   -3.9515   -3.4343 C.ar      12 UNK        -0.0944 
     11 C11        32.7295   -4.5738   -4.6573 C.ar      12 UNK        -0.0787 
     12 C12        31.6702   -5.0762   -5.4174 C.ar      12 UNK        -0.0862 
     13 C13        30.3499   -4.9285   -4.9840 C.ar      12 UNK        -0.0733 
     14 C14        30.0941   -4.3133   -3.7551 C.ar      12 UNK        -0.0832 
     15 C15        29.1958   -5.3811   -5.8691 C.3       12 UNK         0.0240 
     16 S16        29.2073   -4.5470   -7.4929 S.3       12 UNK        -0.2522 
     17 C17        29.3702   -2.7870   -7.0282 C.3       12 UNK        -0.0967 
     18 CA         28.3050   -1.8951   -7.6997 C.3       5 UNK         0.0660 
     19 N          26.9475   -2.3089   -7.3433 N.am      5 UNK        -0.4015 
     20 C          25.8178   -1.7818   -7.8274 C.2       4 UNK         0.4946 
     21 O          25.7879   -0.8859   -8.6707 O.2       4 UNK        -0.5353 
     22 CA         24.4970   -2.2827   -7.2174 C.3       4 UNK         0.0277 
     23 CB         24.6064   -3.6690   -6.5411 C.3       4 UNK        -0.1981 
     24 N          23.9338   -1.3014   -6.2811 N.am      4 UNK        -0.4209 
     25 C          24.5414   -0.7569   -5.2146 C.2       3 UNK         0.4942 
     26 O          25.7094   -0.9943   -4.8929 O.2       3 UNK        -0.5208 
     27 CA         23.7373    0.2581   -4.3797 C.3       3 UNK         0.0250 
     28 CB         22.2233    0.2981   -4.6931 C.3       3 UNK        -0.1990 
     29 N          23.9787    0.0652   -2.9462 N.am      3 UNK        -0.4232 
     30 C          23.6819   -1.0130   -2.2068 C.2       2 UNK         0.4993 
     31 O          23.0816   -2.0028   -2.6312 O.2       2 UNK        -0.5286 
     32 CA         24.1643   -0.9768   -0.7435 C.3       2 UNK         0.0209 
     33 CB         23.4454   -2.0144    0.1396 C.3       2 UNK        -0.1931 
     34 N          25.6100   -1.1908   -0.6370 N.am      2 UNK        -0.4546 
     35 C          26.5588   -0.3093   -0.9856 C.2       1 UNK         0.5154 
     36 O          26.3112    0.8046   -1.4517 O.2       1 UNK        -0.5181 
     37 C          28.5855   -0.4097   -7.3892 C.2       5 UNK         0.5014 
     38 O          29.3222    0.2230   -8.1453 O.2       5 UNK        -0.5248 
     39 N          27.9943    0.1363   -6.3144 N.am      6 UNK        -0.4434 
     40 CA         28.1076    1.5588   -5.9756 C.3       6 UNK         0.0363 
     41 CB         27.7273    1.7937   -4.5058 C.3       6 UNK        -0.1936 
     42 C          27.2695    2.4523   -6.9040 C.2       6 UNK         0.5081 
     43 O          27.6930    3.5676   -7.2040 O.2       6 UNK        -0.5248 
     44 N          26.1208    1.9441   -7.3745 N.am      7 UNK        -0.4718 
     45 CA         25.2648    2.6187   -8.3563 C.3       7 UNK         0.0273 
     46 CB         23.8626    1.9889   -8.3472 C.3       7 UNK        -0.1935 
     47 C          25.8818    2.5910   -9.7654 C.2       7 UNK         0.5018 
     48 O          25.7766    3.5768  -10.4950 O.2       7 UNK        -0.5186 
     49 N          26.5591    1.4829  -10.0977 N.am      8 UNK        -0.4240 
     50 CA         27.3693    1.3104  -11.3072 C.3       8 UNK         0.0235 
     51 CB         27.6431   -0.1896  -11.5067 C.3       8 UNK        -0.2000 
     52 C          28.6969    2.0970  -11.2879 C.2       8 UNK         0.4941 
     53 O          29.3544    2.1703  -12.3268 O.2       8 UNK        -0.5273 
     54 N          29.0699    2.6532  -10.1245 N.am      9 UNK        -0.4262 
     55 CA         30.2983    3.4024   -9.8361 C.3       9 UNK         0.0264 
     56 CB         30.3552    4.7145  -10.6480 C.3       9 UNK        -0.1955 
     57 C          31.5734    2.5455   -9.9687 C.2       9 UNK         0.5031 
     58 O          32.5956    3.0306  -10.4600 O.2       9 UNK        -0.5390 
     59 N          31.4897    1.2904   -9.5114 N.am      10 UNK        -0.4204 
     60 CA         32.6037    0.3535   -9.3808 C.3       10 UNK         0.0237 
     61 CB         32.1297   -1.0427   -9.8351 C.3       10 UNK        -0.1985 
     62 C          33.1373    0.3884   -7.9337 C.2       10 UNK         0.4970 
     63 O          33.0950    1.4401   -7.2912 O.2       10 UNK        -0.4914 
     64 N          33.6459   -0.7485   -7.4431 N.am      11 UNK        -0.4285 
     65 CA         34.2026   -0.9161   -6.0895 C.3       11 UNK         0.1007 
     66 C          33.1839   -0.8546   -4.9138 C.2       11 UNK         0.5703 
     67 N          31.8794   -0.8125   -5.1545 N.am      11 UNK        -0.7361 
     68 O          33.5968   -0.8173   -3.7573 O.2       11 UNK        -0.4986 
     69 C69        35.1410   -2.1520   -5.9980 C.3       12 UNK        -0.0947 
     70 S70        34.4403   -3.7039   -6.6641 S.3       12 UNK        -0.2240 
     71 C71        34.1556   -4.7108   -5.1700 C.3       12 UNK         0.0194 
     72 H72        29.0019   -1.9883    3.4527 H         1 UNK         0.0906 
     73 H73        28.4639   -3.2539    2.3475 H         1 UNK         0.0906 
     74 H74        27.2883   -2.4006    3.3495 H         1 UNK         0.0906 
     75 H75        28.4339   -2.5591    0.2220 H         1 UNK         0.3140 
     76 H76        28.5589    0.2084   -0.5223 H         1 UNK         0.1085 
     77 H77        28.3995   -0.7636   -2.9029 H         1 UNK         0.0836 
     78 H78        28.2699   -2.3437   -2.1929 H         1 UNK         0.0836 
     79 H79        31.7317   -3.2053   -1.0022 H         1 UNK         0.0731 
     80 H80        30.0464   -3.6257   -1.1279 H         1 UNK         0.0731 
     81 H81        33.2757   -3.5531   -2.8445 H         1 UNK         0.1312 
     82 H82        31.8713   -5.5460   -6.3707 H         1 UNK         0.1406 
     83 H83        29.0750   -4.1981   -3.4140 H         1 UNK         0.1631 
     84 H84        28.2359   -5.1937   -5.3855 H         1 UNK         0.0717 
     85 H85        29.2605   -6.4592   -6.0216 H         1 UNK         0.0717 
     86 H86        29.3123   -2.6732   -5.9447 H         1 UNK         0.0934 
     87 H87        30.3772   -2.4736   -7.3070 H         1 UNK         0.0934 
     88 H88        28.3985   -2.0152   -8.7806 H         1 UNK         0.0739 
     89 H89        26.8722   -3.0218   -6.6336 H         1 UNK         0.3093 
     90 H90        23.7933   -2.3718   -8.0466 H         1 UNK         0.0818 
     91 H91        25.0309   -4.4095   -7.2207 H         1 UNK         0.0819 
     92 H92        25.2216   -3.6484   -5.6407 H         1 UNK         0.0819 
     93 H93        23.6217   -4.0345   -6.2493 H         1 UNK         0.0819 
     94 H94        22.9830   -1.0180   -6.4716 H         1 UNK         0.3041 
     95 H95        24.1485    1.2384   -4.6252 H         1 UNK         0.0784 
     96 H96        22.0354    0.6152   -5.7194 H         1 UNK         0.0793 
     97 H97        21.7472   -0.6729   -4.5513 H         1 UNK         0.0793 
     98 H98        21.7109    1.0110   -4.0468 H         1 UNK         0.0793 
     99 H99        24.5944    0.7464   -2.5123 H         1 UNK         0.3024 
    100 H100       23.9300    0.0138   -0.3460 H         1 UNK         0.1171 
    101 H101       23.7370   -1.9153    1.1854 H         1 UNK         0.0786 
    102 H102       22.3634   -1.8832    0.0928 H         1 UNK         0.0786 
    103 H103       23.6637   -3.0360   -0.1744 H         1 UNK         0.0786 
    104 H104       25.9078   -2.0812   -0.2662 H         1 UNK         0.2977 
    105 H105       27.3574   -0.4234   -5.7514 H         1 UNK         0.3127 
    106 H106       29.1515    1.8583   -6.0962 H         1 UNK         0.0770 
    107 H107       27.7380    2.8575   -4.2645 H         1 UNK         0.0814 
    108 H108       26.7312    1.4192   -4.2723 H         1 UNK         0.0814 
    109 H109       28.4369    1.3128   -3.8346 H         1 UNK         0.0814 
    110 H110       25.8822    0.9911   -7.1408 H         1 UNK         0.2983 
    111 H111       25.1653    3.6663   -8.0622 H         1 UNK         0.0947 
    112 H112       23.8829    0.9374   -8.6335 H         1 UNK         0.0806 
    113 H113       23.2035    2.5022   -9.0487 H         1 UNK         0.0806 
    114 H114       23.4030    2.0616   -7.3617 H         1 UNK         0.0806 
    115 H115       26.4995    0.6828   -9.4718 H         1 UNK         0.3000 
    116 H116       26.7888    1.6714  -12.1588 H         1 UNK         0.0850 
    117 H117       28.1680   -0.3701  -12.4458 H         1 UNK         0.0810 
    118 H118       26.7171   -0.7643  -11.5366 H         1 UNK         0.0810 
    119 H119       28.2632   -0.5924  -10.7059 H         1 UNK         0.0810 
    120 H120       28.4607    2.5088   -9.3308 H         1 UNK         0.3040 
    121 H121       30.2358    3.6769   -8.7819 H         1 UNK         0.0766 
    122 H122       30.4830    4.5273  -11.7145 H         1 UNK         0.0812 
    123 H123       31.1916    5.3361  -10.3262 H         1 UNK         0.0812 
    124 H124       29.4465    5.3017  -10.5159 H         1 UNK         0.0812 
    125 H125       30.6171    0.9917   -9.0734 H         1 UNK         0.3205 
    126 H126       33.4247    0.6590  -10.0323 H         1 UNK         0.0754 
    127 H127       32.9528   -1.7571   -9.8722 H         1 UNK         0.0769 
    128 H128       31.7060   -1.0013  -10.8390 H         1 UNK         0.0769 
    129 H129       31.3627   -1.4469   -9.1752 H         1 UNK         0.0769 
    130 H130       33.6368   -1.5815   -8.0129 H         1 UNK         0.2981 
    131 H131       34.8423   -0.0470   -5.9235 H         1 UNK         0.0541 
    132 H132       31.5339   -0.7916   -6.0975 H         1 UNK         0.3459 
    133 H133       31.2499   -0.7904   -4.3673 H         1 UNK         0.3459 
    134 H134       35.4943   -2.3055   -4.9771 H         1 UNK         0.0612 
    135 H135       36.0418   -1.9470   -6.5781 H         1 UNK         0.0612 
    136 H136       34.3360   -5.7569   -5.4212 H         1 UNK         0.0624 
    137 H137       34.8814   -4.4577   -4.3960 H         1 UNK         0.0624 
@<TRIPOS>BOND
     1    1    2 1    
     2    1   72 1    
     3    1   73 1    
     4    1   74 1    
     5    2    3 2    
     6    2    4 am   BACKBONE|DICT|INTERRES
     7    4    5 1    
     8    4   75 1    
     9    5    6 1    
    10    5   35 1    
    11    5   76 1    
    12    6    7 1    
    13    6   77 1    
    14    6   78 1    
    15    7    8 1    
    16    8    9 1    
    17    8   79 1    
    18    8   80 1    
    19    9   10 ar   
    20    9   14 ar   
    21   10   11 ar   
    22   10   81 1    
    23   11   12 ar   
    24   11   71 1    
    25   12   13 ar   
    26   12   82 1    
    27   13   14 ar   
    28   13   15 1    
    29   14   83 1    
    30   15   16 1    
    31   15   84 1    
    32   15   85 1    
    33   16   17 1    
    34   17   18 1    
    35   17   86 1    
    36   17   87 1    
    37   18   19 1    
    38   18   37 1    
    39   18   88 1    
    40   19   20 am   BACKBONE|DICT|INTERRES
    41   19   89 1    
    42   20   21 2    
    43   20   22 1    
    44   22   23 1    
    45   22   24 1    
    46   22   90 1    
    47   23   91 1    
    48   23   92 1    
    49   23   93 1    
    50   24   25 am   BACKBONE|DICT|INTERRES
    51   24   94 1    
    52   25   26 2    
    53   25   27 1    
    54   27   28 1    
    55   27   29 1    
    56   27   95 1    
    57   28   96 1    
    58   28   97 1    
    59   28   98 1    
    60   29   30 am   BACKBONE|DICT|INTERRES
    61   29   99 1    
    62   30   31 2    
    63   30   32 1    
    64   32   33 1    
    65   32   34 1    
    66   32  100 1    
    67   33  101 1    
    68   33  102 1    
    69   33  103 1    
    70   34   35 am   BACKBONE|DICT|INTERRES
    71   34  104 1    
    72   35   36 2    
    73   37   38 2    
    74   37   39 am   BACKBONE|DICT|INTERRES
    75   39   40 1    
    76   39  105 1    
    77   40   41 1    
    78   40   42 1    
    79   40  106 1    
    80   41  107 1    
    81   41  108 1    
    82   41  109 1    
    83   42   43 2    
    84   42   44 am   BACKBONE|DICT|INTERRES
    85   44   45 1    
    86   44  110 1    
    87   45   46 1    
    88   45   47 1    
    89   45  111 1    
    90   46  112 1    
    91   46  113 1    
    92   46  114 1    
    93   47   48 2    
    94   47   49 am   BACKBONE|DICT|INTERRES
    95   49   50 1    
    96   49  115 1    
    97   50   51 1    
    98   50   52 1    
    99   50  116 1    
   100   51  117 1    
   101   51  118 1    
   102   51  119 1    
   103   52   53 2    
   104   52   54 am   BACKBONE|DICT|INTERRES
   105   54   55 1    
   106   54  120 1    
   107   55   56 1    
   108   55   57 1    
   109   55  121 1    
   110   56  122 1    
   111   56  123 1    
   112   56  124 1    
   113   57   58 2    
   114   57   59 am   BACKBONE|DICT|INTERRES
   115   59   60 1    
   116   59  125 1    
   117   60   61 1    
   118   60   62 1    
   119   60  126 1    
   120   61  127 1    
   121   61  128 1    
   122   61  129 1    
   123   62   63 2    
   124   62   64 am   BACKBONE|DICT|INTERRES
   125   64   65 1    
   126   64  130 1    
   127   65   66 1    
   128   65   69 1    
   129   65  131 1    
   130   66   67 am   BACKBONE|DICT|INTERRES
   131   66   68 2    
   132   67  132 1    
   133   67  133 1    
   134   69   70 1    
   135   69  134 1    
   136   69  135 1    
   137   70   71 1    
   138   71  136 1    
   139   71  137 1    
@<TRIPOS>SUBSTRUCTURE
     1 UNK         1 GROUP             0       ****    0 ROOT    
