@<TRIPOS>MOLECULE
3R137
137   139    1
SMALL
USER_CHARGES


@<TRIPOS>ATOM
      1 CA         27.1144   -8.5535   -1.0853 C.3       0 UNK        -0.2020 
      2 C          27.2094   -7.1914   -0.4141 C.2       0 UNK         0.4855 
      3 O          26.6574   -7.0039    0.6708 O.2       0 UNK        -0.5197 
      4 N          27.9117   -6.2420   -1.0453 N.am      1 UNK        -0.4892 
      5 CA         28.0395   -4.8560   -0.5853 C.3       1 UNK         0.0835 
      6 C6         29.2425   -4.1581   -1.2697 C.3       12 UNK        -0.0855 
      7 S7         29.8299   -2.6873   -0.3626 S.3       12 UNK        -0.2931 
      8 C8         28.9062   -1.3549   -1.1966 C.3       12 UNK         0.0378 
      9 C9         29.7140   -0.5807   -2.2305 C.ar      12 UNK        -0.0802 
     10 C10        30.4431   -1.2289   -3.2328 C.ar      12 UNK        -0.0944 
     11 C11        31.0966   -0.4942   -4.2284 C.ar      12 UNK        -0.0787 
     12 C12        31.0247    0.9028   -4.2145 C.ar      12 UNK        -0.0862 
     13 C13        30.2912    1.5604   -3.2219 C.ar      12 UNK        -0.0733 
     14 C14        29.6565    0.8141   -2.2262 C.ar      12 UNK        -0.0832 
     15 C15        30.1429    3.0756   -3.2308 C.3       12 UNK         0.0240 
     16 S16        28.9647    3.6700   -4.4931 S.3       12 UNK        -0.2522 
     17 C17        27.5517    2.5147   -4.3755 C.3       12 UNK        -0.0967 
     18 CA         27.5859    1.4570   -5.5142 C.3       5 UNK         0.0660 
     19 N          27.1025    0.1411   -5.0684 N.am      5 UNK        -0.4015 
     20 C          27.0539   -0.9705   -5.8224 C.2       4 UNK         0.4946 
     21 O          27.4533   -1.0213   -6.9849 O.2       4 UNK        -0.5353 
     22 CA         26.3802   -2.2220   -5.2284 C.3       4 UNK         0.0277 
     23 CB         27.4502   -3.2126   -4.7535 C.3       4 UNK        -0.1981 
     24 N          25.4185   -1.9782   -4.1436 N.am      4 UNK        -0.4209 
     25 C          24.3618   -1.1508   -4.2010 C.2       3 UNK         0.4942 
     26 O          24.1100   -0.4423   -5.1781 O.2       3 UNK        -0.5208 
     27 CA         23.4223   -1.0805   -2.9809 C.3       3 UNK         0.0250 
     28 CB         22.0003   -1.5198   -3.3707 C.3       3 UNK        -0.1990 
     29 N          23.8501   -1.8609   -1.8152 N.am      3 UNK        -0.4232 
     30 C          24.8760   -1.5677   -1.0045 C.2       2 UNK         0.4993 
     31 O          25.6408   -0.6206   -1.1899 O.2       2 UNK        -0.5286 
     32 CA         25.0859   -2.4766    0.2249 C.3       2 UNK         0.0209 
     33 CB         23.8950   -3.4175    0.5243 C.3       2 UNK        -0.1931 
     34 N          26.3327   -3.2507    0.1606 N.am      2 UNK        -0.4546 
     35 C          26.7107   -4.0975   -0.8089 C.2       1 UNK         0.5154 
     36 O          26.0711   -4.2811   -1.8488 O.2       1 UNK        -0.5181 
     37 C          26.8885    1.9847   -6.7923 C.2       5 UNK         0.5014 
     38 O          27.4843    2.7842   -7.5159 O.2       5 UNK        -0.5248 
     39 N          25.6740    1.4902   -7.0874 N.am      6 UNK        -0.4434 
     40 CA         24.9539    1.7001   -8.3470 C.3       6 UNK         0.0363 
     41 CB         23.6085    0.9607   -8.2852 C.3       6 UNK        -0.1936 
     42 C          25.7398    1.2790   -9.6070 C.2       6 UNK         0.5081 
     43 O          25.5082    1.8535  -10.6716 O.2       6 UNK        -0.5248 
     44 N          26.6899    0.3391   -9.4779 N.am      7 UNK        -0.4718 
     45 CA         27.6456   -0.0495  -10.5209 C.3       7 UNK         0.0273 
     46 CB         28.1613   -1.4675  -10.2217 C.3       7 UNK        -0.1935 
     47 C          28.7892    0.9788  -10.6585 C.2       7 UNK         0.5018 
     48 O          29.9644    0.6285  -10.5051 O.2       7 UNK        -0.5186 
     49 N          28.4083    2.2404  -10.9153 N.am      8 UNK        -0.4240 
     50 CA         29.2440    3.4259  -11.1599 C.3       8 UNK         0.0235 
     51 CB         29.8970    3.3157  -12.5541 C.3       8 UNK        -0.2000 
     52 C          30.2843    3.7248  -10.0593 C.2       8 UNK         0.4941 
     53 O          31.3235    4.3165  -10.3561 O.2       8 UNK        -0.5273 
     54 N          30.0178    3.2670   -8.8257 N.am      9 UNK        -0.4262 
     55 CA         30.9259    3.2101   -7.6717 C.3       9 UNK         0.0264 
     56 CB         31.2393    4.6295   -7.1546 C.3       9 UNK        -0.1955 
     57 C          32.2095    2.3798   -7.9015 C.2       9 UNK         0.5031 
     58 O          33.1330    2.4696   -7.0906 O.2       9 UNK        -0.5390 
     59 N          32.2564    1.5945   -8.9854 N.am      10 UNK        -0.4204 
     60 CA         33.4218    0.8315   -9.4244 C.3       10 UNK         0.0237 
     61 CB         33.6086    1.0291  -10.9383 C.3       10 UNK        -0.1985 
     62 C          33.2707   -0.6558   -9.0939 C.2       10 UNK         0.4970 
     63 O          34.2510   -1.2739   -8.6778 O.2       10 UNK        -0.4914 
     64 N          32.0592   -1.1985   -9.2864 N.am      11 UNK        -0.4285 
     65 CA         31.7072   -2.6094   -9.0402 C.3       11 UNK         0.1007 
     66 C          32.4240   -3.6339   -9.9738 C.2       11 UNK         0.5703 
     67 N          32.9536   -3.2218  -11.1200 N.am      11 UNK        -0.7361 
     68 O          32.4741   -4.8260   -9.6788 O.2       11 UNK        -0.4986 
     69 C69        31.7827   -2.9996   -7.5353 C.3       12 UNK        -0.0947 
     70 S70        30.6828   -1.9776   -6.5026 S.3       12 UNK        -0.2240 
     71 C71        31.8492   -1.2219   -5.3321 C.3       12 UNK         0.0194 
     72 H72        27.5261   -9.3231   -0.4329 H         1 UNK         0.0906 
     73 H73        26.0722   -8.7996   -1.2873 H         1 UNK         0.0906 
     74 H74        27.6585   -8.5828   -2.0292 H         1 UNK         0.0906 
     75 H75        28.3101   -6.4426   -1.9516 H         1 UNK         0.3140 
     76 H76        28.2354   -4.8942    0.4892 H         1 UNK         0.1085 
     77 H77        30.0891   -4.8460   -1.3048 H         1 UNK         0.0836 
     78 H78        29.0267   -3.9165   -2.3091 H         1 UNK         0.0836 
     79 H79        28.5320   -0.6817   -0.4236 H         1 UNK         0.0731 
     80 H80        28.0239   -1.7540   -1.6940 H         1 UNK         0.0731 
     81 H81        30.4848   -2.3084   -3.2588 H         1 UNK         0.1312 
     82 H82        31.5156    1.4776   -4.9875 H         1 UNK         0.1406 
     83 H83        29.0787    1.3233   -1.4664 H         1 UNK         0.1631 
     84 H84        31.1152    3.5354   -3.4133 H         1 UNK         0.0717 
     85 H85        29.8174    3.4343   -2.2531 H         1 UNK         0.0717 
     86 H86        27.5620    2.0433   -3.3937 H         1 UNK         0.0934 
     87 H87        26.6248    3.0918   -4.3928 H         1 UNK         0.0934 
     88 H88        28.6259    1.2791   -5.7942 H         1 UNK         0.0739 
     89 H89        26.7359    0.0886   -4.1296 H         1 UNK         0.3093 
     90 H90        25.8213   -2.6923   -6.0398 H         1 UNK         0.0818 
     91 H91        27.0101   -4.1404   -4.3884 H         1 UNK         0.0819 
     92 H92        28.1280   -3.4750   -5.5670 H         1 UNK         0.0819 
     93 H93        28.0519   -2.7787   -3.9579 H         1 UNK         0.0819 
     94 H94        25.5356   -2.5368   -3.3069 H         1 UNK         0.3041 
     95 H95        23.3813   -0.0314   -2.6806 H         1 UNK         0.0784 
     96 H96        21.6189   -0.9260   -4.2029 H         1 UNK         0.0793 
     97 H97        21.9715   -2.5660   -3.6779 H         1 UNK         0.0793 
     98 H98        21.3032   -1.3924   -2.5421 H         1 UNK         0.0793 
     99 H99        23.3021   -2.6817   -1.6004 H         1 UNK         0.3024 
    100 H100       25.1858   -1.7986    1.0744 H         1 UNK         0.1171 
    101 H101       24.0495   -3.9512    1.4622 H         1 UNK         0.0786 
    102 H102       22.9636   -2.8591    0.6299 H         1 UNK         0.0786 
    103 H103       23.7513   -4.1675   -0.2546 H         1 UNK         0.0786 
    104 H104       26.9550   -3.1268    0.9477 H         1 UNK         0.2977 
    105 H105       25.2501    0.8366   -6.4364 H         1 UNK         0.3127 
    106 H106       24.7558    2.7704   -8.4325 H         1 UNK         0.0770 
    107 H107       22.9989    1.3132   -7.4529 H         1 UNK         0.0814 
    108 H108       23.7466   -0.1148   -8.1654 H         1 UNK         0.0814 
    109 H109       23.0323    1.1177   -9.1982 H         1 UNK         0.0814 
    110 H110       26.8526   -0.0687   -8.5593 H         1 UNK         0.2983 
    111 H111       27.1272   -0.0822  -11.4816 H         1 UNK         0.0947 
    112 H112       28.6846   -1.5048   -9.2662 H         1 UNK         0.0806 
    113 H113       28.8544   -1.8058  -10.9930 H         1 UNK         0.0806 
    114 H114       27.3436   -2.1870  -10.1811 H         1 UNK         0.0806 
    115 H115       27.4053    2.3960  -10.9670 H         1 UNK         0.3000 
    116 H116       28.5664    4.2809  -11.1731 H         1 UNK         0.0850 
    117 H117       29.1527    3.1283  -13.3280 H         1 UNK         0.0810 
    118 H118       30.6298    2.5085  -12.5908 H         1 UNK         0.0810 
    119 H119       30.4135    4.2378  -12.8234 H         1 UNK         0.0810 
    120 H120       29.0962    2.8724   -8.6546 H         1 UNK         0.3040 
    121 H121       30.3737    2.6857   -6.8925 H         1 UNK         0.0766 
    122 H122       31.7749    4.5906   -6.2053 H         1 UNK         0.0812 
    123 H123       30.3253    5.1981   -6.9835 H         1 UNK         0.0812 
    124 H124       31.8588    5.1892   -7.8558 H         1 UNK         0.0812 
    125 H125       31.4260    1.5251   -9.5672 H         1 UNK         0.3205 
    126 H126       34.3213    1.1966   -8.9239 H         1 UNK         0.0754 
    127 H127       34.4739    0.4734  -11.3024 H         1 UNK         0.0769 
    128 H128       33.7728    2.0797  -11.1794 H         1 UNK         0.0769 
    129 H129       32.7385    0.6920  -11.5038 H         1 UNK         0.0769 
    130 H130       31.3143   -0.6185   -9.6578 H         1 UNK         0.2981 
    131 H131       30.6619   -2.6963   -9.3313 H         1 UNK         0.0541 
    132 H132       33.4049   -3.8910  -11.7233 H         1 UNK         0.3459 
    133 H133       32.9074   -2.2516  -11.3854 H         1 UNK         0.3459 
    134 H134       31.4710   -4.0353   -7.3913 H         1 UNK         0.0612 
    135 H135       32.8078   -2.9400   -7.1676 H         1 UNK         0.0612 
    136 H136       32.5108   -0.5414   -5.8710 H         1 UNK         0.0624 
    137 H137       32.4799   -1.9957   -4.8921 H         1 UNK         0.0624 
@<TRIPOS>BOND
     1    1    2 1    
     2    1   72 1    
     3    1   73 1    
     4    1   74 1    
     5    2    3 2    
     6    2    4 am   BACKBONE|DICT|INTERRES
     7    4    5 1    
     8    4   75 1    
     9    5    6 1    
    10    5   35 1    
    11    5   76 1    
    12    6    7 1    
    13    6   77 1    
    14    6   78 1    
    15    7    8 1    
    16    8    9 1    
    17    8   79 1    
    18    8   80 1    
    19    9   10 ar   
    20    9   14 ar   
    21   10   11 ar   
    22   10   81 1    
    23   11   12 ar   
    24   11   71 1    
    25   12   13 ar   
    26   12   82 1    
    27   13   14 ar   
    28   13   15 1    
    29   14   83 1    
    30   15   16 1    
    31   15   84 1    
    32   15   85 1    
    33   16   17 1    
    34   17   18 1    
    35   17   86 1    
    36   17   87 1    
    37   18   19 1    
    38   18   37 1    
    39   18   88 1    
    40   19   20 am   BACKBONE|DICT|INTERRES
    41   19   89 1    
    42   20   21 2    
    43   20   22 1    
    44   22   23 1    
    45   22   24 1    
    46   22   90 1    
    47   23   91 1    
    48   23   92 1    
    49   23   93 1    
    50   24   25 am   BACKBONE|DICT|INTERRES
    51   24   94 1    
    52   25   26 2    
    53   25   27 1    
    54   27   28 1    
    55   27   29 1    
    56   27   95 1    
    57   28   96 1    
    58   28   97 1    
    59   28   98 1    
    60   29   30 am   BACKBONE|DICT|INTERRES
    61   29   99 1    
    62   30   31 2    
    63   30   32 1    
    64   32   33 1    
    65   32   34 1    
    66   32  100 1    
    67   33  101 1    
    68   33  102 1    
    69   33  103 1    
    70   34   35 am   BACKBONE|DICT|INTERRES
    71   34  104 1    
    72   35   36 2    
    73   37   38 2    
    74   37   39 am   BACKBONE|DICT|INTERRES
    75   39   40 1    
    76   39  105 1    
    77   40   41 1    
    78   40   42 1    
    79   40  106 1    
    80   41  107 1    
    81   41  108 1    
    82   41  109 1    
    83   42   43 2    
    84   42   44 am   BACKBONE|DICT|INTERRES
    85   44   45 1    
    86   44  110 1    
    87   45   46 1    
    88   45   47 1    
    89   45  111 1    
    90   46  112 1    
    91   46  113 1    
    92   46  114 1    
    93   47   48 2    
    94   47   49 am   BACKBONE|DICT|INTERRES
    95   49   50 1    
    96   49  115 1    
    97   50   51 1    
    98   50   52 1    
    99   50  116 1    
   100   51  117 1    
   101   51  118 1    
   102   51  119 1    
   103   52   53 2    
   104   52   54 am   BACKBONE|DICT|INTERRES
   105   54   55 1    
   106   54  120 1    
   107   55   56 1    
   108   55   57 1    
   109   55  121 1    
   110   56  122 1    
   111   56  123 1    
   112   56  124 1    
   113   57   58 2    
   114   57   59 am   BACKBONE|DICT|INTERRES
   115   59   60 1    
   116   59  125 1    
   117   60   61 1    
   118   60   62 1    
   119   60  126 1    
   120   61  127 1    
   121   61  128 1    
   122   61  129 1    
   123   62   63 2    
   124   62   64 am   BACKBONE|DICT|INTERRES
   125   64   65 1    
   126   64  130 1    
   127   65   66 1    
   128   65   69 1    
   129   65  131 1    
   130   66   67 am   BACKBONE|DICT|INTERRES
   131   66   68 2    
   132   67  132 1    
   133   67  133 1    
   134   69   70 1    
   135   69  134 1    
   136   69  135 1    
   137   70   71 1    
   138   71  136 1    
   139   71  137 1    
@<TRIPOS>SUBSTRUCTURE
     1 UNK         1 GROUP             0       ****    0 ROOT    
