@<TRIPOS>MOLECULE
3R137
137   139    1
SMALL
USER_CHARGES


@<TRIPOS>ATOM
      1 CA         25.4064   -4.5221    2.2987 C.3       0 UNK        -0.2020 
      2 C          26.2976   -3.9553    1.2039 C.2       0 UNK         0.4855 
      3 O          26.9844   -2.9587    1.4277 O.2       0 UNK        -0.5197 
      4 N          26.2882   -4.5771    0.0163 N.am      1 UNK        -0.4892 
      5 CA         27.0875   -4.1677   -1.1483 C.3       1 UNK         0.0835 
      6 C6         27.4459   -5.3901   -2.0320 C.3       12 UNK        -0.0855 
      7 S7         28.8843   -5.1848   -3.1437 S.3       12 UNK        -0.2931 
      8 C8         30.2502   -4.6812   -2.0423 C.3       12 UNK         0.0378 
      9 C9         30.6799   -3.2383   -2.2936 C.ar      12 UNK        -0.0802 
     10 C10        31.5110   -2.9430   -3.3789 C.ar      12 UNK        -0.0944 
     11 C11        31.9558   -1.6364   -3.6015 C.ar      12 UNK        -0.0787 
     12 C12        31.5480   -0.6132   -2.7413 C.ar      12 UNK        -0.0862 
     13 C13        30.7045   -0.8880   -1.6610 C.ar      12 UNK        -0.0733 
     14 C14        30.2882   -2.2045   -1.4345 C.ar      12 UNK        -0.0832 
     15 C15        30.2670    0.2254   -0.7132 C.3       12 UNK         0.0240 
     16 S16        29.4334    1.6159   -1.5544 S.3       12 UNK        -0.2522 
     17 C17        28.0477    0.7872   -2.4031 C.3       12 UNK        -0.0967 
     18 CA         28.1745    0.8955   -3.9479 C.3       5 UNK         0.0660 
     19 N          27.8249   -0.3577   -4.6222 N.am      5 UNK        -0.4015 
     20 C          27.9862   -0.5978   -5.9322 C.2       4 UNK         0.4946 
     21 O          28.3526    0.2465   -6.7493 O.2       4 UNK        -0.5353 
     22 CA         27.6691   -2.0155   -6.4198 C.3       4 UNK         0.0277 
     23 CB         28.8200   -2.9698   -6.0704 C.3       4 UNK        -0.1981 
     24 N          26.4154   -2.4945   -5.8397 N.am      4 UNK        -0.4209 
     25 C          25.2170   -2.3158   -6.4150 C.2       3 UNK         0.4942 
     26 O          25.0589   -1.8301   -7.5350 O.2       3 UNK        -0.5208 
     27 CA         23.9743   -2.7265   -5.6041 C.3       3 UNK         0.0250 
     28 CB         23.6130   -4.1948   -5.8807 C.3       3 UNK        -0.1990 
     29 N          24.1136   -2.5249   -4.1599 N.am      3 UNK        -0.4232 
     30 C          24.3509   -1.3474   -3.5646 C.2       2 UNK         0.4993 
     31 O          24.4704   -0.2805   -4.1647 O.2       2 UNK        -0.5286 
     32 CA         24.5545   -1.3714   -2.0429 C.3       2 UNK         0.0209 
     33 CB         23.2098   -1.2135   -1.3161 C.3       2 UNK        -0.1931 
     34 N          25.2466   -2.5645   -1.5406 N.am      2 UNK        -0.4546 
     35 C          26.4530   -2.9988   -1.9392 C.2       1 UNK         0.5154 
     36 O          27.0638   -2.4960   -2.8843 O.2       1 UNK        -0.5181 
     37 C          27.4141    2.1217   -4.4972 C.2       5 UNK         0.5014 
     38 O          28.0270    3.1727   -4.6912 O.2       5 UNK        -0.5248 
     39 N          26.1054    1.9704   -4.7557 N.am      6 UNK        -0.4434 
     40 CA         25.2625    3.0226   -5.3312 C.3       6 UNK         0.0363 
     41 CB         23.7826    2.7071   -5.0616 C.3       6 UNK        -0.1936 
     42 C          25.4991    3.2224   -6.8376 C.2       6 UNK         0.5081 
     43 O          25.2997    4.3324   -7.3318 O.2       6 UNK        -0.5248 
     44 N          25.9092    2.1580   -7.5424 N.am      7 UNK        -0.4718 
     45 CA         26.2512    2.1990   -8.9658 C.3       7 UNK         0.0273 
     46 CB         26.2216    0.7773   -9.5500 C.3       7 UNK        -0.1935 
     47 C          27.6161    2.8591   -9.2112 C.2       7 UNK         0.5018 
     48 O          27.7636    3.5888  -10.1925 O.2       7 UNK        -0.5186 
     49 N          28.5856    2.5789   -8.3266 N.am      8 UNK        -0.4240 
     50 CA         29.9731    3.0607   -8.2792 C.3       8 UNK         0.0235 
     51 CB         30.0418    4.5939   -8.1461 C.3       8 UNK        -0.2000 
     52 C          30.8522    2.5536   -9.4343 C.2       8 UNK         0.4941 
     53 O          31.9332    2.0259   -9.1807 O.2       8 UNK        -0.5273 
     54 N          30.3639    2.6646  -10.6762 N.am      9 UNK        -0.4262 
     55 CA         31.0029    2.1578  -11.8965 C.3       9 UNK         0.0264 
     56 CB         30.2262    2.6748  -13.1182 C.3       9 UNK        -0.1955 
     57 C          31.1227    0.6215  -11.9431 C.2       9 UNK         0.5031 
     58 O          31.9430    0.1018  -12.7003 O.2       9 UNK        -0.5390 
     59 N          30.3112   -0.0725  -11.1338 N.am      10 UNK        -0.4204 
     60 CA         30.3527   -1.5195  -10.9272 C.3       10 UNK         0.0237 
     61 CB         29.0624   -1.9486  -10.2117 C.3       10 UNK        -0.1985 
     62 C          31.5821   -1.9895  -10.1267 C.2       10 UNK         0.4970 
     63 O          31.9723   -3.1492  -10.2687 O.2       10 UNK        -0.4914 
     64 N          32.1540   -1.1104   -9.2927 N.am      11 UNK        -0.4285 
     65 CA         33.3433   -1.3919   -8.4791 C.3       11 UNK         0.1007 
     66 C          34.6395   -1.4185   -9.3329 C.2       11 UNK         0.5703 
     67 N          35.5978   -2.2637   -8.9770 N.am      11 UNK        -0.7361 
     68 O          34.8030   -0.6580  -10.2852 O.2       11 UNK        -0.4986 
     69 C69        33.4742   -0.3916   -7.3032 C.3       12 UNK        -0.0947 
     70 S70        32.0788   -0.5142   -6.1330 S.3       12 UNK        -0.2240 
     71 C71        32.9122   -1.3360   -4.7435 C.3       12 UNK         0.0194 
     72 H72        24.8541   -5.3998    1.9635 H         1 UNK         0.0906 
     73 H73        26.0087   -4.8099    3.1600 H         1 UNK         0.0906 
     74 H74        24.6862   -3.7713    2.6228 H         1 UNK         0.0906 
     75 H75        25.7033   -5.3919   -0.1131 H         1 UNK         0.3140 
     76 H76        28.0150   -3.7689   -0.7510 H         1 UNK         0.1085 
     77 H77        27.6737   -6.2475   -1.3961 H         1 UNK         0.0836 
     78 H78        26.5861   -5.6928   -2.6325 H         1 UNK         0.0836 
     79 H79        29.9887   -4.8399   -0.9957 H         1 UNK         0.0731 
     80 H80        31.0990   -5.3404   -2.2309 H         1 UNK         0.0731 
     81 H81        31.8241   -3.7379   -4.0421 H         1 UNK         0.1312 
     82 H82        31.8892    0.3988   -2.9122 H         1 UNK         0.1406 
     83 H83        29.6714   -2.4169   -0.5744 H         1 UNK         0.1631 
     84 H84        31.1453    0.6080   -0.1918 H         1 UNK         0.0717 
     85 H85        29.5983   -0.1614    0.0576 H         1 UNK         0.0717 
     86 H86        28.0368   -0.2547   -2.0863 H         1 UNK         0.0934 
     87 H87        27.1065    1.2020   -2.0365 H         1 UNK         0.0934 
     88 H88        29.2270    1.0503   -4.1980 H         1 UNK         0.0739 
     89 H89        27.5365   -1.1264   -4.0208 H         1 UNK         0.3093 
     90 H90        27.5766   -1.9905   -7.5064 H         1 UNK         0.0818 
     91 H91        29.0266   -2.9726   -5.0003 H         1 UNK         0.0819 
     92 H92        28.6002   -3.9929   -6.3748 H         1 UNK         0.0819 
     93 H93        29.7397   -2.6686   -6.5741 H         1 UNK         0.0819 
     94 H94        26.4596   -2.8548   -4.8935 H         1 UNK         0.3041 
     95 H95        23.1459   -2.0999   -5.9414 H         1 UNK         0.0784 
     96 H96        23.4803   -4.3687   -6.9496 H         1 UNK         0.0793 
     97 H97        24.3921   -4.8753   -5.5343 H         1 UNK         0.0793 
     98 H98        22.6796   -4.4738   -5.3914 H         1 UNK         0.0793 
     99 H99        24.0450   -3.3450   -3.5754 H         1 UNK         0.3024 
    100 H100       25.1777   -0.5103   -1.7935 H         1 UNK         0.1171 
    101 H101       23.3497   -1.1092   -0.2400 H         1 UNK         0.0786 
    102 H102       22.6829   -0.3218   -1.6594 H         1 UNK         0.0786 
    103 H103       22.5533   -2.0672   -1.4892 H         1 UNK         0.0786 
    104 H104       24.8220   -3.0377   -0.7563 H         1 UNK         0.2977 
    105 H105       25.6472    1.0805   -4.5609 H         1 UNK         0.3127 
    106 H106       25.5009    3.9644   -4.8320 H         1 UNK         0.0770 
    107 H107       23.4658    1.7948   -5.5686 H         1 UNK         0.0814 
    108 H108       23.1414    3.5152   -5.4160 H         1 UNK         0.0814 
    109 H109       23.5897    2.5825   -3.9960 H         1 UNK         0.0814 
    110 H110       26.0742    1.2885   -7.0550 H         1 UNK         0.2983 
    111 H111       25.4981    2.7945   -9.4872 H         1 UNK         0.0947 
    112 H112       26.4690    0.7848  -10.6124 H         1 UNK         0.0806 
    113 H113       25.2318    0.3309   -9.4520 H         1 UNK         0.0806 
    114 H114       26.9320    0.1166   -9.0532 H         1 UNK         0.0806 
    115 H115       28.3689    1.8764   -7.6200 H         1 UNK         0.3000 
    116 H116       30.3899    2.6359   -7.3639 H         1 UNK         0.0850 
    117 H117       31.0725    4.9256   -8.0139 H         1 UNK         0.0810 
    118 H118       29.4764    4.9383   -7.2799 H         1 UNK         0.0810 
    119 H119       29.6486    5.1021   -9.0268 H         1 UNK         0.0810 
    120 H120       29.4500    3.1037  -10.7734 H         1 UNK         0.3040 
    121 H121       32.0164    2.5625  -11.9340 H         1 UNK         0.0766 
    122 H122       30.2072    3.7645  -13.1442 H         1 UNK         0.0812 
    123 H123       29.1944    2.3209  -13.1194 H         1 UNK         0.0812 
    124 H124       30.6885    2.3381  -14.0473 H         1 UNK         0.0812 
    125 H125       29.6641    0.4497  -10.5627 H         1 UNK         0.3205 
    126 H126       30.3872   -2.0056  -11.9045 H         1 UNK         0.0754 
    127 H127       29.0465   -3.0259  -10.0394 H         1 UNK         0.0769 
    128 H128       28.1778   -1.7015  -10.7991 H         1 UNK         0.0769 
    129 H129       28.9712   -1.4603   -9.2415 H         1 UNK         0.0769 
    130 H130       31.8267   -0.1532   -9.2668 H         1 UNK         0.2981 
    131 H131       33.2161   -2.3880   -8.0494 H         1 UNK         0.0541 
    132 H132       35.4818   -2.8852   -8.1917 H         1 UNK         0.3459 
    133 H133       36.4533   -2.2853   -9.5097 H         1 UNK         0.3459 
    134 H134       33.5289    0.6333   -7.6713 H         1 UNK         0.0612 
    135 H135       34.4070   -0.5587   -6.7613 H         1 UNK         0.0612 
    136 H136       33.3791   -2.2552   -5.1009 H         1 UNK         0.0624 
    137 H137       33.7201   -0.6988   -4.3805 H         1 UNK         0.0624 
@<TRIPOS>BOND
     1    1    2 1    
     2    1   72 1    
     3    1   73 1    
     4    1   74 1    
     5    2    3 2    
     6    2    4 am   BACKBONE|DICT|INTERRES
     7    4    5 1    
     8    4   75 1    
     9    5    6 1    
    10    5   35 1    
    11    5   76 1    
    12    6    7 1    
    13    6   77 1    
    14    6   78 1    
    15    7    8 1    
    16    8    9 1    
    17    8   79 1    
    18    8   80 1    
    19    9   10 ar   
    20    9   14 ar   
    21   10   11 ar   
    22   10   81 1    
    23   11   12 ar   
    24   11   71 1    
    25   12   13 ar   
    26   12   82 1    
    27   13   14 ar   
    28   13   15 1    
    29   14   83 1    
    30   15   16 1    
    31   15   84 1    
    32   15   85 1    
    33   16   17 1    
    34   17   18 1    
    35   17   86 1    
    36   17   87 1    
    37   18   19 1    
    38   18   37 1    
    39   18   88 1    
    40   19   20 am   BACKBONE|DICT|INTERRES
    41   19   89 1    
    42   20   21 2    
    43   20   22 1    
    44   22   23 1    
    45   22   24 1    
    46   22   90 1    
    47   23   91 1    
    48   23   92 1    
    49   23   93 1    
    50   24   25 am   BACKBONE|DICT|INTERRES
    51   24   94 1    
    52   25   26 2    
    53   25   27 1    
    54   27   28 1    
    55   27   29 1    
    56   27   95 1    
    57   28   96 1    
    58   28   97 1    
    59   28   98 1    
    60   29   30 am   BACKBONE|DICT|INTERRES
    61   29   99 1    
    62   30   31 2    
    63   30   32 1    
    64   32   33 1    
    65   32   34 1    
    66   32  100 1    
    67   33  101 1    
    68   33  102 1    
    69   33  103 1    
    70   34   35 am   BACKBONE|DICT|INTERRES
    71   34  104 1    
    72   35   36 2    
    73   37   38 2    
    74   37   39 am   BACKBONE|DICT|INTERRES
    75   39   40 1    
    76   39  105 1    
    77   40   41 1    
    78   40   42 1    
    79   40  106 1    
    80   41  107 1    
    81   41  108 1    
    82   41  109 1    
    83   42   43 2    
    84   42   44 am   BACKBONE|DICT|INTERRES
    85   44   45 1    
    86   44  110 1    
    87   45   46 1    
    88   45   47 1    
    89   45  111 1    
    90   46  112 1    
    91   46  113 1    
    92   46  114 1    
    93   47   48 2    
    94   47   49 am   BACKBONE|DICT|INTERRES
    95   49   50 1    
    96   49  115 1    
    97   50   51 1    
    98   50   52 1    
    99   50  116 1    
   100   51  117 1    
   101   51  118 1    
   102   51  119 1    
   103   52   53 2    
   104   52   54 am   BACKBONE|DICT|INTERRES
   105   54   55 1    
   106   54  120 1    
   107   55   56 1    
   108   55   57 1    
   109   55  121 1    
   110   56  122 1    
   111   56  123 1    
   112   56  124 1    
   113   57   58 2    
   114   57   59 am   BACKBONE|DICT|INTERRES
   115   59   60 1    
   116   59  125 1    
   117   60   61 1    
   118   60   62 1    
   119   60  126 1    
   120   61  127 1    
   121   61  128 1    
   122   61  129 1    
   123   62   63 2    
   124   62   64 am   BACKBONE|DICT|INTERRES
   125   64   65 1    
   126   64  130 1    
   127   65   66 1    
   128   65   69 1    
   129   65  131 1    
   130   66   67 am   BACKBONE|DICT|INTERRES
   131   66   68 2    
   132   67  132 1    
   133   67  133 1    
   134   69   70 1    
   135   69  134 1    
   136   69  135 1    
   137   70   71 1    
   138   71  136 1    
   139   71  137 1    
@<TRIPOS>SUBSTRUCTURE
     1 UNK         1 GROUP             0       ****    0 ROOT    
