@<TRIPOS>MOLECULE
3R137
137   139    1
SMALL
USER_CHARGES


@<TRIPOS>ATOM
      1 CA         24.3468   -5.7689   -5.0298 C.3       0 UNK        -0.2020 
      2 C          24.8646   -5.1441   -3.7435 C.2       0 UNK         0.4855 
      3 O          24.0853   -4.5632   -2.9878 O.2       0 UNK        -0.5197 
      4 N          26.1777   -5.2494   -3.4997 N.am      1 UNK        -0.4892 
      5 CA         26.8965   -4.7081   -2.3395 C.3       1 UNK         0.0835 
      6 C6         28.3856   -5.1263   -2.3972 C.3       12 UNK        -0.0855 
      7 S7         29.2976   -4.7830   -0.8546 S.3       12 UNK        -0.2931 
      8 C8         30.9660   -4.4222   -1.4955 C.3       12 UNK         0.0378 
      9 C9         31.0224   -3.1023   -2.2535 C.ar      12 UNK        -0.0802 
     10 C10        31.1347   -3.0866   -3.6478 C.ar      12 UNK        -0.0944 
     11 C11        31.1911   -1.8776   -4.3478 C.ar      12 UNK        -0.0787 
     12 C12        31.1565   -0.6776   -3.6285 C.ar      12 UNK        -0.0862 
     13 C13        31.0072   -0.6744   -2.2382 C.ar      12 UNK        -0.0733 
     14 C14        30.9565   -1.8933   -1.5563 C.ar      12 UNK        -0.0832 
     15 C15        30.8684    0.6319   -1.4585 C.3       12 UNK         0.0240 
     16 S16        29.8582    1.9129   -2.2897 S.3       12 UNK        -0.2522 
     17 C17        28.3620    0.9968   -2.8003 C.3       12 UNK        -0.0967 
     18 CA         28.1891    0.9969   -4.3452 C.3       5 UNK         0.0660 
     19 N          27.5845   -0.2410   -4.8408 N.am      5 UNK        -0.4015 
     20 C          27.4535   -0.5860   -6.1307 C.2       4 UNK         0.4946 
     21 O          27.9428    0.0431   -7.0696 O.2       4 UNK        -0.5353 
     22 CA         26.5773   -1.8152   -6.4282 C.3       4 UNK         0.0277 
     23 CB         27.3954   -3.1166   -6.3831 C.3       4 UNK        -0.1981 
     24 N          25.4422   -1.9058   -5.5052 N.am      4 UNK        -0.4209 
     25 C          24.3925   -1.0702   -5.5184 C.2       3 UNK         0.4942 
     26 O          24.2351   -0.1880   -6.3606 O.2       3 UNK        -0.5208 
     27 CA         23.3730   -1.2024   -4.3746 C.3       3 UNK         0.0250 
     28 CB         22.2701   -2.2095   -4.7343 C.3       3 UNK        -0.1990 
     29 N          24.0033   -1.5741   -3.1047 N.am      3 UNK        -0.4232 
     30 C          24.7813   -0.7428   -2.3938 C.2       2 UNK         0.4993 
     31 O          24.9977    0.4252   -2.7161 O.2       2 UNK        -0.5286 
     32 CA         25.4867   -1.3165   -1.1511 C.3       2 UNK         0.0209 
     33 CB         24.5980   -1.1607    0.0925 C.3       2 UNK        -0.1931 
     34 N          25.8847   -2.7203   -1.2982 N.am      2 UNK        -0.4546 
     35 C          26.7146   -3.1777   -2.2462 C.2       1 UNK         0.5154 
     36 O          27.2593   -2.4473   -3.0749 O.2       1 UNK        -0.5181 
     37 C          27.4178    2.2398   -4.8295 C.2       5 UNK         0.5014 
     38 O          28.0305    3.1519   -5.3847 O.2       5 UNK        -0.5248 
     39 N          26.0879    2.2374   -4.6470 N.am      6 UNK        -0.4434 
     40 CA         25.1783    3.2986   -5.0917 C.3       6 UNK         0.0363 
     41 CB         23.7608    3.0170   -4.5694 C.3       6 UNK        -0.1936 
     42 C          25.1659    3.4910   -6.6184 C.2       6 UNK         0.5081 
     43 O          25.1366    4.6305   -7.0839 O.2       6 UNK        -0.5248 
     44 N          25.2180    2.3820   -7.3689 N.am      7 UNK        -0.4718 
     45 CA         25.3472    2.3706   -8.8293 C.3       7 UNK         0.0273 
     46 CB         24.9864    0.9701   -9.3510 C.3       7 UNK        -0.1935 
     47 C          26.7476    2.7735   -9.3298 C.2       7 UNK         0.5018 
     48 O          26.8786    3.1155  -10.5057 O.2       7 UNK        -0.5186 
     49 N          27.7561    2.7041   -8.4465 N.am      8 UNK        -0.4240 
     50 CA         29.1888    2.8966   -8.6924 C.3       8 UNK         0.0235 
     51 CB         29.4962    4.3669   -9.0457 C.3       8 UNK        -0.2000 
     52 C          29.7247    1.8946   -9.7307 C.2       8 UNK         0.4941 
     53 O          30.3605    2.2921  -10.7105 O.2       8 UNK        -0.5273 
     54 N          29.4335    0.6052   -9.5097 N.am      9 UNK        -0.4262 
     55 CA         29.7252   -0.5173  -10.4092 C.3       9 UNK         0.0264 
     56 CB         28.8457   -1.7099   -9.9919 C.3       9 UNK        -0.1955 
     57 C          31.2236   -0.8886  -10.4809 C.2       9 UNK         0.5031 
     58 O          31.5845   -2.0417  -10.2310 O.2       9 UNK        -0.5390 
     59 N          32.0690    0.0966  -10.8151 N.am      10 UNK        -0.4204 
     60 CA         33.5366    0.0840  -10.9139 C.3       10 UNK         0.0237 
     61 CB         34.0326   -0.9111  -11.9823 C.3       10 UNK        -0.1985 
     62 C          34.2398   -0.1326   -9.5626 C.2       10 UNK         0.4970 
     63 O          35.0280    0.7188   -9.1503 O.2       10 UNK        -0.4914 
     64 N          33.9187   -1.2486   -8.8998 N.am      11 UNK        -0.4285 
     65 CA         34.3091   -1.6137   -7.5279 C.3       11 UNK         0.1007 
     66 C          35.8334   -1.8561   -7.3091 C.2       11 UNK         0.5703 
     67 N          36.6222   -2.0746   -8.3547 N.am      11 UNK        -0.7361 
     68 O          36.3076   -1.8828   -6.1756 O.2       11 UNK        -0.4986 
     69 C69        33.6815   -0.6765   -6.4530 C.3       12 UNK        -0.0947 
     70 S70        31.8882   -0.4195   -6.6839 S.3       12 UNK        -0.2240 
     71 C71        31.2100   -1.9078   -5.8761 C.3       12 UNK         0.0194 
     72 H72        23.4275   -6.3209   -4.8361 H         1 UNK         0.0906 
     73 H73        24.1317   -4.9951   -5.7659 H         1 UNK         0.0906 
     74 H74        25.0683   -6.4605   -5.4642 H         1 UNK         0.0906 
     75 H75        26.7562   -5.7309   -4.1733 H         1 UNK         0.3140 
     76 H76        26.4545   -5.1630   -1.4504 H         1 UNK         0.1085 
     77 H77        28.8776   -4.6469   -3.2441 H         1 UNK         0.0836 
     78 H78        28.4627   -6.1997   -2.5781 H         1 UNK         0.0836 
     79 H79        31.2968   -5.2483   -2.1271 H         1 UNK         0.0731 
     80 H80        31.6636   -4.3831   -0.6576 H         1 UNK         0.0731 
     81 H81        31.1595   -4.0205   -4.1926 H         1 UNK         0.1312 
     82 H82        31.2010    0.2662   -4.1501 H         1 UNK         0.1406 
     83 H83        30.8471   -1.9069   -0.4802 H         1 UNK         0.1631 
     84 H84        31.8637    1.0368   -1.2722 H         1 UNK         0.0717 
     85 H85        30.4245    0.4406   -0.4802 H         1 UNK         0.0717 
     86 H86        28.4309   -0.0253   -2.4265 H         1 UNK         0.0934 
     87 H87        27.4967    1.4236   -2.2895 H         1 UNK         0.0934 
     88 H88        29.1738    1.0413   -4.8131 H         1 UNK         0.0739 
     89 H89        27.2504   -0.8969   -4.1395 H         1 UNK         0.3093 
     90 H90        26.1811   -1.7028   -7.4395 H         1 UNK         0.0818 
     91 H91        28.1740   -3.1120   -7.1448 H         1 UNK         0.0819 
     92 H92        26.7678   -3.9869   -6.5739 H         1 UNK         0.0819 
     93 H93        27.8895   -3.2614   -5.4228 H         1 UNK         0.0819 
     94 H94        25.5339   -2.5536   -4.7362 H         1 UNK         0.3041 
     95 H95        22.9001   -0.2270   -4.2419 H         1 UNK         0.0784 
     96 H96        21.7575   -1.9123   -5.6503 H         1 UNK         0.0793 
     97 H97        22.6670   -3.2109   -4.8955 H         1 UNK         0.0793 
     98 H98        21.5177   -2.2706   -3.9479 H         1 UNK         0.0793 
     99 H99        23.9065   -2.5403   -2.8054 H         1 UNK         0.3024 
    100 H100       26.3960   -0.7316   -0.9973 H         1 UNK         0.1171 
    101 H101       25.1213   -1.4736    0.9963 H         1 UNK         0.0786 
    102 H102       24.3052   -0.1192    0.2342 H         1 UNK         0.0786 
    103 H103       23.6828   -1.7488    0.0122 H         1 UNK         0.0786 
    104 H104       25.4366   -3.3848   -0.6832 H         1 UNK         0.2977 
    105 H105       25.6705    1.4749   -4.1162 H         1 UNK         0.3127 
    106 H106       25.5256    4.2328   -4.6454 H         1 UNK         0.0770 
    107 H107       23.3570    2.0912   -4.9796 H         1 UNK         0.0814 
    108 H108       23.0771    3.8209   -4.8451 H         1 UNK         0.0814 
    109 H109       23.7460    2.9363   -3.4823 H         1 UNK         0.0814 
    110 H110       25.1466    1.4771   -6.9111 H         1 UNK         0.2983 
    111 H111       24.6337    3.0868   -9.2427 H         1 UNK         0.0947 
    112 H112       25.0329    0.9328  -10.4402 H         1 UNK         0.0806 
    113 H113       23.9752    0.6855   -9.0596 H         1 UNK         0.0806 
    114 H114       25.6712    0.2122   -8.9689 H         1 UNK         0.0806 
    115 H115       27.5261    2.3917   -7.5109 H         1 UNK         0.3000 
    116 H116       29.6945    2.6673   -7.7528 H         1 UNK         0.0850 
    117 H117       30.5712    4.5302   -9.1295 H         1 UNK         0.0810 
    118 H118       29.1239    5.0431   -8.2761 H         1 UNK         0.0810 
    119 H119       29.0482    4.6597   -9.9958 H         1 UNK         0.0810 
    120 H120       28.9267    0.3761   -8.6555 H         1 UNK         0.3040 
    121 H121       29.4256   -0.2236  -11.4173 H         1 UNK         0.0766 
    122 H122       27.7884   -1.4441   -9.9839 H         1 UNK         0.0812 
    123 H123       29.1111   -2.0633   -8.9957 H         1 UNK         0.0812 
    124 H124       28.9653   -2.5476  -10.6801 H         1 UNK         0.0812 
    125 H125       31.6347    1.0112  -10.9403 H         1 UNK         0.3205 
    126 H126       33.8128    1.0842  -11.2519 H         1 UNK         0.0754 
    127 H127       35.1154   -0.8486  -12.0978 H         1 UNK         0.0769 
    128 H128       33.5909   -0.6964  -12.9555 H         1 UNK         0.0769 
    129 H129       33.7936   -1.9443  -11.7292 H         1 UNK         0.0769 
    130 H130       33.2092   -1.8385   -9.3279 H         1 UNK         0.2981 
    131 H131       33.8693   -2.5993   -7.3765 H         1 UNK         0.0541 
    132 H132       36.2439   -2.0633   -9.2882 H         1 UNK         0.3459 
    133 H133       37.6049   -2.2419   -8.2071 H         1 UNK         0.3459 
    134 H134       33.8477   -1.0719   -5.4494 H         1 UNK         0.0612 
    135 H135       34.1644    0.3016   -6.4774 H         1 UNK         0.0612 
    136 H136       30.1834   -2.0291   -6.2198 H         1 UNK         0.0624 
    137 H137       31.7561   -2.7829   -6.2300 H         1 UNK         0.0624 
@<TRIPOS>BOND
     1    1    2 1    
     2    1   72 1    
     3    1   73 1    
     4    1   74 1    
     5    2    3 2    
     6    2    4 am   BACKBONE|DICT|INTERRES
     7    4    5 1    
     8    4   75 1    
     9    5    6 1    
    10    5   35 1    
    11    5   76 1    
    12    6    7 1    
    13    6   77 1    
    14    6   78 1    
    15    7    8 1    
    16    8    9 1    
    17    8   79 1    
    18    8   80 1    
    19    9   10 ar   
    20    9   14 ar   
    21   10   11 ar   
    22   10   81 1    
    23   11   12 ar   
    24   11   71 1    
    25   12   13 ar   
    26   12   82 1    
    27   13   14 ar   
    28   13   15 1    
    29   14   83 1    
    30   15   16 1    
    31   15   84 1    
    32   15   85 1    
    33   16   17 1    
    34   17   18 1    
    35   17   86 1    
    36   17   87 1    
    37   18   19 1    
    38   18   37 1    
    39   18   88 1    
    40   19   20 am   BACKBONE|DICT|INTERRES
    41   19   89 1    
    42   20   21 2    
    43   20   22 1    
    44   22   23 1    
    45   22   24 1    
    46   22   90 1    
    47   23   91 1    
    48   23   92 1    
    49   23   93 1    
    50   24   25 am   BACKBONE|DICT|INTERRES
    51   24   94 1    
    52   25   26 2    
    53   25   27 1    
    54   27   28 1    
    55   27   29 1    
    56   27   95 1    
    57   28   96 1    
    58   28   97 1    
    59   28   98 1    
    60   29   30 am   BACKBONE|DICT|INTERRES
    61   29   99 1    
    62   30   31 2    
    63   30   32 1    
    64   32   33 1    
    65   32   34 1    
    66   32  100 1    
    67   33  101 1    
    68   33  102 1    
    69   33  103 1    
    70   34   35 am   BACKBONE|DICT|INTERRES
    71   34  104 1    
    72   35   36 2    
    73   37   38 2    
    74   37   39 am   BACKBONE|DICT|INTERRES
    75   39   40 1    
    76   39  105 1    
    77   40   41 1    
    78   40   42 1    
    79   40  106 1    
    80   41  107 1    
    81   41  108 1    
    82   41  109 1    
    83   42   43 2    
    84   42   44 am   BACKBONE|DICT|INTERRES
    85   44   45 1    
    86   44  110 1    
    87   45   46 1    
    88   45   47 1    
    89   45  111 1    
    90   46  112 1    
    91   46  113 1    
    92   46  114 1    
    93   47   48 2    
    94   47   49 am   BACKBONE|DICT|INTERRES
    95   49   50 1    
    96   49  115 1    
    97   50   51 1    
    98   50   52 1    
    99   50  116 1    
   100   51  117 1    
   101   51  118 1    
   102   51  119 1    
   103   52   53 2    
   104   52   54 am   BACKBONE|DICT|INTERRES
   105   54   55 1    
   106   54  120 1    
   107   55   56 1    
   108   55   57 1    
   109   55  121 1    
   110   56  122 1    
   111   56  123 1    
   112   56  124 1    
   113   57   58 2    
   114   57   59 am   BACKBONE|DICT|INTERRES
   115   59   60 1    
   116   59  125 1    
   117   60   61 1    
   118   60   62 1    
   119   60  126 1    
   120   61  127 1    
   121   61  128 1    
   122   61  129 1    
   123   62   63 2    
   124   62   64 am   BACKBONE|DICT|INTERRES
   125   64   65 1    
   126   64  130 1    
   127   65   66 1    
   128   65   69 1    
   129   65  131 1    
   130   66   67 am   BACKBONE|DICT|INTERRES
   131   66   68 2    
   132   67  132 1    
   133   67  133 1    
   134   69   70 1    
   135   69  134 1    
   136   69  135 1    
   137   70   71 1    
   138   71  136 1    
   139   71  137 1    
@<TRIPOS>SUBSTRUCTURE
     1 UNK         1 GROUP             0       ****    0 ROOT    
