@<TRIPOS>MOLECULE
3R137
137   139    1
SMALL
USER_CHARGES


@<TRIPOS>ATOM
      1 CA         25.8396   -7.5887   -3.9456 C.3       0 UNK        -0.2020 
      2 C          26.1613   -6.8851   -2.6356 C.2       0 UNK         0.4855 
      3 O          25.9128   -7.4384   -1.5642 O.2       0 UNK        -0.5197 
      4 N          26.7090   -5.6694   -2.7123 N.am      1 UNK        -0.4892 
      5 CA         27.0596   -4.8214   -1.5770 C.3       1 UNK         0.0835 
      6 C6         28.4642   -5.1704   -1.0247 C.3       12 UNK        -0.0855 
      7 S7         28.9574   -4.1682    0.4207 S.3       12 UNK        -0.2931 
      8 C8         30.6284   -3.6215   -0.0566 C.3       12 UNK         0.0378 
      9 C9         30.6279   -2.6384   -1.2219 C.ar      12 UNK        -0.0802 
     10 C10        31.0278   -3.0547   -2.4959 C.ar      12 UNK        -0.0944 
     11 C11        31.1050   -2.1408   -3.5503 C.ar      12 UNK        -0.0787 
     12 C12        30.7800   -0.8013   -3.3243 C.ar      12 UNK        -0.0862 
     13 C13        30.3702   -0.3693   -2.0583 C.ar      12 UNK        -0.0733 
     14 C14        30.2882   -1.2975   -1.0134 C.ar      12 UNK        -0.0832 
     15 C15        30.0836    1.1052   -1.7929 C.3       12 UNK         0.0240 
     16 S16        28.5654    1.7002   -2.6069 S.3       12 UNK        -0.2522 
     17 C17        29.1966    2.2941   -4.2109 C.3       12 UNK        -0.0967 
     18 CA         28.3681    1.8723   -5.4520 C.3       5 UNK         0.0660 
     19 N          27.9753    0.4568   -5.4929 N.am      5 UNK        -0.4015 
     20 C          27.6965   -0.1832   -6.6399 C.2       4 UNK         0.4946 
     21 O          27.8209    0.3374   -7.7483 O.2       4 UNK        -0.5353 
     22 CA         27.1667   -1.6230   -6.5590 C.3       4 UNK         0.0277 
     23 CB         28.3046   -2.6193   -6.3001 C.3       4 UNK        -0.1981 
     24 N          26.1257   -1.7900   -5.5468 N.am      4 UNK        -0.4209 
     25 C          24.8918   -1.2692   -5.6364 C.2       3 UNK         0.4942 
     26 O          24.5033   -0.6037   -6.5941 O.2       3 UNK        -0.5208 
     27 CA         23.9342   -1.4927   -4.4487 C.3       3 UNK         0.0250 
     28 CB         23.0998   -2.7644   -4.6680 C.3       3 UNK        -0.1990 
     29 N          24.6188   -1.5806   -3.1580 N.am      3 UNK        -0.4232 
     30 C          25.4376   -0.6448   -2.6581 C.2       2 UNK         0.4993 
     31 O          25.5789    0.4674   -3.1668 O.2       2 UNK        -0.5286 
     32 CA         26.2905   -1.0335   -1.4347 C.3       2 UNK         0.0209 
     33 CB         25.7498   -0.3616   -0.1633 C.3       2 UNK        -0.1931 
     34 N          26.4375   -2.4772   -1.1980 N.am      2 UNK        -0.4546 
     35 C          26.9402   -3.3691   -2.0655 C.2       1 UNK         0.5154 
     36 O          27.2660   -3.0935   -3.2237 O.2       1 UNK        -0.5181 
     37 C          27.1783    2.8134   -5.7230 C.2       5 UNK         0.5014 
     38 O          27.3884    3.8519   -6.3504 O.2       5 UNK        -0.5248 
     39 N          25.9542    2.4289   -5.3263 N.am      6 UNK        -0.4434 
     40 CA         24.7200    3.1412   -5.6838 C.3       6 UNK         0.0363 
     41 CB         23.5269    2.5429   -4.9241 C.3       6 UNK        -0.1936 
     42 C          24.4517    3.1485   -7.2020 C.2       6 UNK         0.5081 
     43 O          24.0418    4.1771   -7.7398 O.2       6 UNK        -0.5248 
     44 N          24.7275    2.0199   -7.8711 N.am      7 UNK        -0.4718 
     45 CA         24.6810    1.8714   -9.3302 C.3       7 UNK         0.0273 
     46 CB         24.5563    0.3770   -9.6720 C.3       7 UNK        -0.1935 
     47 C          25.8983    2.4795  -10.0555 C.2       7 UNK         0.5018 
     48 O          25.8762    2.5583  -11.2845 O.2       7 UNK        -0.5186 
     49 N          26.9315    2.8763   -9.2971 N.am      8 UNK        -0.4240 
     50 CA         28.2274    3.4012   -9.7401 C.3       8 UNK         0.0235 
     51 CB         28.0622    4.7684  -10.4379 C.3       8 UNK        -0.2000 
     52 C          29.0324    2.3839  -10.5733 C.2       8 UNK         0.4941 
     53 O          29.6438    2.7557  -11.5769 O.2       8 UNK        -0.5273 
     54 N          29.0283    1.1152  -10.1366 N.am      9 UNK        -0.4262 
     55 CA         29.7628    0.0127  -10.7660 C.3       9 UNK         0.0264 
     56 CB         29.2393   -1.3263  -10.2217 C.3       9 UNK        -0.1955 
     57 C          31.2879    0.1094  -10.5767 C.2       9 UNK         0.5031 
     58 O          32.0223   -0.3796  -11.4358 O.2       9 UNK        -0.5390 
     59 N          31.7211    0.7430   -9.4731 N.am      10 UNK        -0.4204 
     60 CA         33.1077    1.0397   -9.0887 C.3       10 UNK         0.0237 
     61 CB         33.7069    2.1065  -10.0304 C.3       10 UNK        -0.1985 
     62 C          33.9832   -0.2247   -8.9877 C.2       10 UNK         0.4970 
     63 O          34.8834   -0.4234   -9.8062 O.2       10 UNK        -0.4914 
     64 N          33.6894   -1.0627   -7.9845 N.am      11 UNK        -0.4285 
     65 CA         34.4049   -2.3213   -7.7091 C.3       11 UNK         0.1007 
     66 C          35.8931   -2.1778   -7.2642 C.2       11 UNK         0.5703 
     67 N          36.3613   -0.9993   -6.8695 N.am      11 UNK        -0.7361 
     68 O          36.6373   -3.1554   -7.2900 O.2       11 UNK        -0.4986 
     69 C69        33.5995   -3.2447   -6.7555 C.3       12 UNK        -0.0947 
     70 S70        33.3641   -2.5605   -5.0766 S.3       12 UNK        -0.2240 
     71 C71        31.5551   -2.5968   -4.9296 C.3       12 UNK         0.0194 
     72 H72        24.7749   -7.8148   -3.9987 H         1 UNK         0.0906 
     73 H73        26.1003   -6.9795   -4.8111 H         1 UNK         0.0906 
     74 H74        26.3909   -8.5262   -4.0127 H         1 UNK         0.0906 
     75 H75        26.8734   -5.2263   -3.6087 H         1 UNK         0.3140 
     76 H76        26.3214   -4.9735   -0.7859 H         1 UNK         0.1085 
     77 H77        29.2087   -5.0836   -1.8166 H         1 UNK         0.0836 
     78 H78        28.4854   -6.2169   -0.7168 H         1 UNK         0.0836 
     79 H79        31.2384   -4.4958   -0.2897 H         1 UNK         0.0731 
     80 H80        31.0999   -3.1501    0.8070 H         1 UNK         0.0731 
     81 H81        31.3021   -4.0868   -2.6656 H         1 UNK         0.1312 
     82 H82        30.8675   -0.0987   -4.1381 H         1 UNK         0.1406 
     83 H83        29.9890   -0.9743   -0.0253 H         1 UNK         0.1631 
     84 H84        30.9382    1.7088   -2.1015 H         1 UNK         0.0717 
     85 H85        29.9744    1.2774   -0.7211 H         1 UNK         0.0717 
     86 H86        29.2800    3.3817   -4.1561 H         1 UNK         0.0934 
     87 H87        30.2234    1.9576   -4.3431 H         1 UNK         0.0934 
     88 H88        29.0395    2.0296   -6.2999 H         1 UNK         0.0739 
     89 H89        27.8239   -0.0011   -4.6050 H         1 UNK         0.3093 
     90 H90        26.7286   -1.8622   -7.5306 H         1 UNK         0.0818 
     91 H91        29.0951   -2.5206   -7.0440 H         1 UNK         0.0819 
     92 H92        28.7513   -2.4661   -5.3183 H         1 UNK         0.0819 
     93 H93        27.9466   -3.6479   -6.3434 H         1 UNK         0.0819 
     94 H94        26.3911   -2.2975   -4.7056 H         1 UNK         0.3041 
     95 H95        23.2544   -0.6409   -4.4022 H         1 UNK         0.0784 
     96 H96        22.5601   -2.7171   -5.6151 H         1 UNK         0.0793 
     97 H97        23.7240   -3.6588   -4.6929 H         1 UNK         0.0793 
     98 H98        22.3569   -2.8936   -3.8806 H         1 UNK         0.0793 
     99 H99        24.5589   -2.4617   -2.6699 H         1 UNK         0.3024 
    100 H100       27.2941   -0.6508   -1.6224 H         1 UNK         0.1171 
    101 H101       26.4122   -0.5284    0.6864 H         1 UNK         0.0786 
    102 H102       25.6681    0.7181   -0.2986 H         1 UNK         0.0786 
    103 H103       24.7594   -0.7343    0.1006 H         1 UNK         0.0786 
    104 H104       26.2034   -2.7975   -0.2689 H         1 UNK         0.2977 
    105 H105       25.8590    1.6066   -4.7347 H         1 UNK         0.3127 
    106 H106       24.8370    4.1786   -5.3634 H         1 UNK         0.0770 
    107 H107       23.3213    1.5216   -5.2413 H         1 UNK         0.0814 
    108 H108       22.6222    3.1254   -5.1026 H         1 UNK         0.0814 
    109 H109       23.7016    2.5339   -3.8480 H         1 UNK         0.0814 
    110 H110       24.9728    1.1862   -7.3442 H         1 UNK         0.2983 
    111 H111       23.7923    2.3844   -9.7041 H         1 UNK         0.0947 
    112 H112       24.4839    0.2231  -10.7495 H         1 UNK         0.0806 
    113 H113       23.6640   -0.0594   -9.2229 H         1 UNK         0.0806 
    114 H114       25.4198   -0.1881   -9.3181 H         1 UNK         0.0806 
    115 H115       26.8336    2.7611   -8.2969 H         1 UNK         0.3000 
    116 H116       28.8082    3.5690   -8.8319 H         1 UNK         0.0850 
    117 H117       29.0328    5.2201  -10.6461 H         1 UNK         0.0810 
    118 H118       27.5081    5.4675   -9.8115 H         1 UNK         0.0810 
    119 H119       27.5360    4.6787  -11.3886 H         1 UNK         0.0810 
    120 H120       28.4953    0.8844   -9.2965 H         1 UNK         0.3040 
    121 H121       29.5604    0.0458  -11.8387 H         1 UNK         0.0766 
    122 H122       28.1631   -1.4221  -10.3673 H         1 UNK         0.0812 
    123 H123       29.4444   -1.4337   -9.1569 H         1 UNK         0.0812 
    124 H124       29.7133   -2.1663  -10.7312 H         1 UNK         0.0812 
    125 H125       31.0108    1.0776   -8.8380 H         1 UNK         0.3205 
    126 H126       33.0696    1.4755   -8.0890 H         1 UNK         0.0754 
    127 H127       34.7141    2.3835   -9.7164 H         1 UNK         0.0769 
    128 H128       33.1057    3.0159  -10.0313 H         1 UNK         0.0769 
    129 H129       33.7734    1.7508  -11.0593 H         1 UNK         0.0769 
    130 H130       32.9493   -0.8264   -7.3416 H         1 UNK         0.2981 
    131 H131       34.4542   -2.8462   -8.6652 H         1 UNK         0.0541 
    132 H132       35.7583   -0.1939   -6.8380 H         1 UNK         0.3459 
    133 H133       37.3262   -0.9204   -6.5899 H         1 UNK         0.3459 
    134 H134       32.6267   -3.4608   -7.1998 H         1 UNK         0.0612 
    135 H135       34.0932   -4.2134   -6.6587 H         1 UNK         0.0612 
    136 H136       31.1924   -3.6075   -5.1237 H         1 UNK         0.0624 
    137 H137       31.1266   -1.9545   -5.6999 H         1 UNK         0.0624 
@<TRIPOS>BOND
     1    1    2 1    
     2    1   72 1    
     3    1   73 1    
     4    1   74 1    
     5    2    3 2    
     6    2    4 am   BACKBONE|DICT|INTERRES
     7    4    5 1    
     8    4   75 1    
     9    5    6 1    
    10    5   35 1    
    11    5   76 1    
    12    6    7 1    
    13    6   77 1    
    14    6   78 1    
    15    7    8 1    
    16    8    9 1    
    17    8   79 1    
    18    8   80 1    
    19    9   10 ar   
    20    9   14 ar   
    21   10   11 ar   
    22   10   81 1    
    23   11   12 ar   
    24   11   71 1    
    25   12   13 ar   
    26   12   82 1    
    27   13   14 ar   
    28   13   15 1    
    29   14   83 1    
    30   15   16 1    
    31   15   84 1    
    32   15   85 1    
    33   16   17 1    
    34   17   18 1    
    35   17   86 1    
    36   17   87 1    
    37   18   19 1    
    38   18   37 1    
    39   18   88 1    
    40   19   20 am   BACKBONE|DICT|INTERRES
    41   19   89 1    
    42   20   21 2    
    43   20   22 1    
    44   22   23 1    
    45   22   24 1    
    46   22   90 1    
    47   23   91 1    
    48   23   92 1    
    49   23   93 1    
    50   24   25 am   BACKBONE|DICT|INTERRES
    51   24   94 1    
    52   25   26 2    
    53   25   27 1    
    54   27   28 1    
    55   27   29 1    
    56   27   95 1    
    57   28   96 1    
    58   28   97 1    
    59   28   98 1    
    60   29   30 am   BACKBONE|DICT|INTERRES
    61   29   99 1    
    62   30   31 2    
    63   30   32 1    
    64   32   33 1    
    65   32   34 1    
    66   32  100 1    
    67   33  101 1    
    68   33  102 1    
    69   33  103 1    
    70   34   35 am   BACKBONE|DICT|INTERRES
    71   34  104 1    
    72   35   36 2    
    73   37   38 2    
    74   37   39 am   BACKBONE|DICT|INTERRES
    75   39   40 1    
    76   39  105 1    
    77   40   41 1    
    78   40   42 1    
    79   40  106 1    
    80   41  107 1    
    81   41  108 1    
    82   41  109 1    
    83   42   43 2    
    84   42   44 am   BACKBONE|DICT|INTERRES
    85   44   45 1    
    86   44  110 1    
    87   45   46 1    
    88   45   47 1    
    89   45  111 1    
    90   46  112 1    
    91   46  113 1    
    92   46  114 1    
    93   47   48 2    
    94   47   49 am   BACKBONE|DICT|INTERRES
    95   49   50 1    
    96   49  115 1    
    97   50   51 1    
    98   50   52 1    
    99   50  116 1    
   100   51  117 1    
   101   51  118 1    
   102   51  119 1    
   103   52   53 2    
   104   52   54 am   BACKBONE|DICT|INTERRES
   105   54   55 1    
   106   54  120 1    
   107   55   56 1    
   108   55   57 1    
   109   55  121 1    
   110   56  122 1    
   111   56  123 1    
   112   56  124 1    
   113   57   58 2    
   114   57   59 am   BACKBONE|DICT|INTERRES
   115   59   60 1    
   116   59  125 1    
   117   60   61 1    
   118   60   62 1    
   119   60  126 1    
   120   61  127 1    
   121   61  128 1    
   122   61  129 1    
   123   62   63 2    
   124   62   64 am   BACKBONE|DICT|INTERRES
   125   64   65 1    
   126   64  130 1    
   127   65   66 1    
   128   65   69 1    
   129   65  131 1    
   130   66   67 am   BACKBONE|DICT|INTERRES
   131   66   68 2    
   132   67  132 1    
   133   67  133 1    
   134   69   70 1    
   135   69  134 1    
   136   69  135 1    
   137   70   71 1    
   138   71  136 1    
   139   71  137 1    
@<TRIPOS>SUBSTRUCTURE
     1 UNK         1 GROUP             0       ****    0 ROOT    
