@<TRIPOS>MOLECULE
3R137
137   139    1
SMALL
USER_CHARGES


@<TRIPOS>ATOM
      1 CA         26.0798   -5.7798   -3.9080 C.3       0 UNK        -0.2020 
      2 C          26.0767   -4.6396   -2.9035 C.2       0 UNK         0.4855 
      3 O          25.7954   -3.4977   -3.2697 O.2       0 UNK        -0.5197 
      4 N          26.3325   -4.9773   -1.6304 N.am      1 UNK        -0.4892 
      5 CA         26.4179   -4.1366   -0.4189 C.3       1 UNK         0.0835 
      6 C6         27.7251   -3.2904   -0.3433 C.3       12 UNK        -0.0855 
      7 S7         27.7339   -1.6990   -1.2476 S.3       12 UNK        -0.2931 
      8 C8         29.5149   -1.2958   -1.2658 C.3       12 UNK         0.0378 
      9 C9         30.1651   -1.5263   -2.6268 C.ar      12 UNK        -0.0802 
     10 C10        30.9900   -0.5433   -3.1870 C.ar      12 UNK        -0.0944 
     11 C11        31.5872   -0.7420   -4.4365 C.ar      12 UNK        -0.0787 
     12 C12        31.3602   -1.9351   -5.1274 C.ar      12 UNK        -0.0862 
     13 C13        30.5477   -2.9269   -4.5745 C.ar      12 UNK        -0.0733 
     14 C14        29.9604   -2.7204   -3.3241 C.ar      12 UNK        -0.0832 
     15 C15        30.3035   -4.2307   -5.3122 C.3       12 UNK         0.0240 
     16 S16        28.5811   -4.3512   -5.8785 S.3       12 UNK        -0.2522 
     17 C17        28.6072   -3.4193   -7.4451 C.3       12 UNK        -0.0967 
     18 CA         27.7639   -2.1179   -7.4706 C.3       5 UNK         0.0660 
     19 N          26.4765   -2.2430   -6.7796 N.am      5 UNK        -0.4015 
     20 C          25.3855   -1.5362   -7.1002 C.2       4 UNK         0.4946 
     21 O          25.3424   -0.7341   -8.0340 O.2       4 UNK        -0.5353 
     22 CA         24.1640   -1.7166   -6.1890 C.3       4 UNK         0.0277 
     23 CB         23.6172   -3.1530   -6.2426 C.3       4 UNK        -0.1981 
     24 N          24.4677   -1.3502   -4.8042 N.am      4 UNK        -0.4209 
     25 C          24.6505   -0.0914   -4.3800 C.2       3 UNK         0.4942 
     26 O          24.6411    0.8816   -5.1332 O.2       3 UNK        -0.5208 
     27 CA         24.9309    0.1218   -2.8818 C.3       3 UNK         0.0250 
     28 CB         24.4875    1.5100   -2.3713 C.3       3 UNK        -0.1990 
     29 N          24.4245   -0.9606   -2.0347 N.am      3 UNK        -0.4232 
     30 C          23.1535   -1.2686   -1.7311 C.2       2 UNK         0.4993 
     31 O          22.1806   -0.6130   -2.1056 O.2       2 UNK        -0.5286 
     32 CA         22.9250   -2.5432   -0.8873 C.3       2 UNK         0.0209 
     33 CB         21.7186   -3.3515   -1.3994 C.3       2 UNK        -0.1931 
     34 N          24.1033   -3.4137   -0.8918 N.am      2 UNK        -0.4546 
     35 C          25.1407   -3.3395   -0.0497 C.2       1 UNK         0.5154 
     36 O          25.1237   -2.6591    0.9769 O.2       1 UNK        -0.5181 
     37 C          28.5420   -0.8464   -7.0620 C.2       5 UNK         0.5014 
     38 O          29.4464   -0.4375   -7.7953 O.2       5 UNK        -0.5248 
     39 N          28.1385   -0.1978   -5.9570 N.am      6 UNK        -0.4434 
     40 CA         28.5893    1.1434   -5.5792 C.3       6 UNK         0.0363 
     41 CB         28.1926    1.4618   -4.1297 C.3       6 UNK        -0.1936 
     42 C          28.0349    2.2101   -6.5361 C.2       6 UNK         0.5081 
     43 O          28.8022    3.0494   -7.0032 O.2       6 UNK        -0.5248 
     44 N          26.7333    2.1353   -6.8592 N.am      7 UNK        -0.4718 
     45 CA         26.0749    2.9999   -7.8469 C.3       7 UNK         0.0273 
     46 CB         24.5526    2.8021   -7.7818 C.3       7 UNK        -0.1935 
     47 C          26.5911    2.7785   -9.2793 C.2       7 UNK         0.5018 
     48 O          26.6517    3.7343  -10.0530 O.2       7 UNK        -0.5186 
     49 N          26.9995    1.5394   -9.5905 N.am      8 UNK        -0.4240 
     50 CA         27.7067    1.1816  -10.8254 C.3       8 UNK         0.0235 
     51 CB         27.6401   -0.3410  -11.0278 C.3       8 UNK        -0.2000 
     52 C          29.1749    1.6577  -10.8545 C.2       8 UNK         0.4941 
     53 O          29.7959    1.5886  -11.9157 O.2       8 UNK        -0.5273 
     54 N          29.7015    2.1156   -9.7071 N.am      9 UNK        -0.4262 
     55 CA         31.0619    2.6052   -9.4691 C.3       9 UNK         0.0264 
     56 CB         31.3207    3.9118  -10.2493 C.3       9 UNK        -0.1955 
     57 C          32.1421    1.5349   -9.7045 C.2       9 UNK         0.5031 
     58 O          33.2112    1.8491  -10.2317 O.2       9 UNK        -0.5390 
     59 N          31.8756    0.2902   -9.2828 N.am      10 UNK        -0.4204 
     60 CA         32.7900   -0.8507   -9.4202 C.3       10 UNK         0.0237 
     61 CB         31.9640   -2.1480   -9.4398 C.3       10 UNK        -0.1985 
     62 C          33.8921   -0.8690   -8.3373 C.2       10 UNK         0.4970 
     63 O          34.1470   -1.9166   -7.7410 O.2       10 UNK        -0.4914 
     64 N          34.5157    0.2884   -8.0994 N.am      11 UNK        -0.4285 
     65 CA         35.5957    0.5252   -7.1355 C.3       11 UNK         0.1007 
     66 C          36.6750    1.4299   -7.7812 C.2       11 UNK         0.5703 
     67 N          37.9369    1.2456   -7.4184 N.am      11 UNK        -0.7361 
     68 O          36.3793    2.3168   -8.5807 O.2       11 UNK        -0.4986 
     69 C69        35.0666    1.1523   -5.8156 C.3       12 UNK        -0.0947 
     70 S70        34.2305   -0.0634   -4.7476 S.3       12 UNK        -0.2240 
     71 C71        32.4809    0.3245   -5.0477 C.3       12 UNK         0.0194 
     72 H72        27.0353   -6.3035   -3.8910 H         1 UNK         0.0906 
     73 H73        25.2875   -6.4926   -3.6814 H         1 UNK         0.0906 
     74 H74        25.9192   -5.4086   -4.9189 H         1 UNK         0.0906 
     75 H75        26.5046   -5.9569   -1.4467 H         1 UNK         0.3140 
     76 H76        26.4955   -4.8681    0.3876 H         1 UNK         0.1085 
     77 H77        28.5690   -3.8949   -0.6782 H         1 UNK         0.0836 
     78 H78        27.9376   -3.0589    0.7021 H         1 UNK         0.0836 
     79 H79        29.6204   -0.2503   -0.9721 H         1 UNK         0.0731 
     80 H80        30.0443   -1.8782   -0.5107 H         1 UNK         0.0731 
     81 H81        31.1663    0.3804   -2.6532 H         1 UNK         0.1312 
     82 H82        31.8250   -2.0898   -6.0913 H         1 UNK         0.1406 
     83 H83        29.3258   -3.4883   -2.9042 H         1 UNK         0.1631 
     84 H84        30.9875   -4.3488   -6.1540 H         1 UNK         0.0717 
     85 H85        30.5071   -5.0625   -4.6364 H         1 UNK         0.0717 
     86 H86        28.2146   -4.0981   -8.2038 H         1 UNK         0.0934 
     87 H87        29.6343   -3.2306   -7.7507 H         1 UNK         0.0934 
     88 H88        27.5294   -1.9588   -8.5236 H         1 UNK         0.0739 
     89 H89        26.4532   -2.8760   -5.9911 H         1 UNK         0.3093 
     90 H90        23.3811   -1.0478   -6.5539 H         1 UNK         0.0818 
     91 H91        22.6883   -3.2405   -5.6787 H         1 UNK         0.0819 
     92 H92        23.4004   -3.4502   -7.2696 H         1 UNK         0.0819 
     93 H93        24.3214   -3.8770   -5.8339 H         1 UNK         0.0819 
     94 H94        24.6103   -2.1077   -4.1429 H         1 UNK         0.3041 
     95 H95        26.0137    0.0755   -2.7807 H         1 UNK         0.0784 
     96 H96        25.0073    2.3082   -2.9022 H         1 UNK         0.0793 
     97 H97        23.4194    1.6739   -2.5150 H         1 UNK         0.0793 
     98 H98        24.7081    1.6316   -1.3109 H         1 UNK         0.0793 
     99 H99        25.1397   -1.5991   -1.7092 H         1 UNK         0.3024 
    100 H100       22.7139   -2.2184    0.1341 H         1 UNK         0.1171 
    101 H101       20.8000   -2.7659   -1.3440 H         1 UNK         0.0786 
    102 H102       21.5615   -4.2503   -0.8027 H         1 UNK         0.0786 
    103 H103       21.8498   -3.6563   -2.4385 H         1 UNK         0.0786 
    104 H104       24.2492   -3.9602   -1.7304 H         1 UNK         0.2977 
    105 H105       27.4059   -0.6110   -5.4015 H         1 UNK         0.3127 
    106 H106       29.6788    1.1586   -5.6449 H         1 UNK         0.0770 
    107 H107       28.7429    2.3302   -3.7661 H         1 UNK         0.0814 
    108 H108       28.4110    0.6344   -3.4562 H         1 UNK         0.0814 
    109 H109       27.1337    1.6994   -4.0416 H         1 UNK         0.0814 
    110 H110       26.1389    1.4539   -6.3968 H         1 UNK         0.2983 
    111 H111       26.2942    4.0361   -7.5801 H         1 UNK         0.0947 
    112 H112       24.0431    3.4380   -8.5070 H         1 UNK         0.0806 
    113 H113       24.1626    3.0585   -6.7967 H         1 UNK         0.0806 
    114 H114       24.2695    1.7706   -7.9942 H         1 UNK         0.0806 
    115 H115       26.8407    0.8027   -8.9145 H         1 UNK         0.3000 
    116 H116       27.1894    1.6594  -11.6602 H         1 UNK         0.0850 
    117 H117       27.9560   -0.6081  -12.0371 H         1 UNK         0.0810 
    118 H118       26.6288   -0.7252  -10.8915 H         1 UNK         0.0810 
    119 H119       28.3030   -0.8653  -10.3404 H         1 UNK         0.0810 
    120 H120       29.1053    2.1338   -8.8880 H         1 UNK         0.3040 
    121 H121       31.1135    2.8463   -8.4066 H         1 UNK         0.0766 
    122 H122       30.5511    4.6554  -10.0418 H         1 UNK         0.0812 
    123 H123       32.2786    4.3515   -9.9690 H         1 UNK         0.0812 
    124 H124       31.3439    3.7432  -11.3263 H         1 UNK         0.0812 
    125 H125       30.9896    0.1080   -8.8136 H         1 UNK         0.3205 
    126 H126       33.2964   -0.7738  -10.3846 H         1 UNK         0.0754 
    127 H127       32.5900   -3.0093   -9.6765 H         1 UNK         0.0769 
    128 H128       31.1691   -2.1077  -10.1849 H         1 UNK         0.0769 
    129 H129       31.5095   -2.3322   -8.4688 H         1 UNK         0.0769 
    130 H130       34.3003    1.0771   -8.7027 H         1 UNK         0.2981 
    131 H131       36.0793   -0.4266   -6.9057 H         1 UNK         0.0541 
    132 H132       38.6518    1.8334   -7.8182 H         1 UNK         0.3459 
    133 H133       38.1900    0.5317   -6.7527 H         1 UNK         0.3459 
    134 H134       34.4020    1.9937   -6.0204 H         1 UNK         0.0612 
    135 H135       35.8909    1.5580   -5.2259 H         1 UNK         0.0612 
    136 H136       32.2503    1.3064   -4.6320 H         1 UNK         0.0624 
    137 H137       32.2926    0.3889   -6.1202 H         1 UNK         0.0624 
@<TRIPOS>BOND
     1    1    2 1    
     2    1   72 1    
     3    1   73 1    
     4    1   74 1    
     5    2    3 2    
     6    2    4 am   BACKBONE|DICT|INTERRES
     7    4    5 1    
     8    4   75 1    
     9    5    6 1    
    10    5   35 1    
    11    5   76 1    
    12    6    7 1    
    13    6   77 1    
    14    6   78 1    
    15    7    8 1    
    16    8    9 1    
    17    8   79 1    
    18    8   80 1    
    19    9   10 ar   
    20    9   14 ar   
    21   10   11 ar   
    22   10   81 1    
    23   11   12 ar   
    24   11   71 1    
    25   12   13 ar   
    26   12   82 1    
    27   13   14 ar   
    28   13   15 1    
    29   14   83 1    
    30   15   16 1    
    31   15   84 1    
    32   15   85 1    
    33   16   17 1    
    34   17   18 1    
    35   17   86 1    
    36   17   87 1    
    37   18   19 1    
    38   18   37 1    
    39   18   88 1    
    40   19   20 am   BACKBONE|DICT|INTERRES
    41   19   89 1    
    42   20   21 2    
    43   20   22 1    
    44   22   23 1    
    45   22   24 1    
    46   22   90 1    
    47   23   91 1    
    48   23   92 1    
    49   23   93 1    
    50   24   25 am   BACKBONE|DICT|INTERRES
    51   24   94 1    
    52   25   26 2    
    53   25   27 1    
    54   27   28 1    
    55   27   29 1    
    56   27   95 1    
    57   28   96 1    
    58   28   97 1    
    59   28   98 1    
    60   29   30 am   BACKBONE|DICT|INTERRES
    61   29   99 1    
    62   30   31 2    
    63   30   32 1    
    64   32   33 1    
    65   32   34 1    
    66   32  100 1    
    67   33  101 1    
    68   33  102 1    
    69   33  103 1    
    70   34   35 am   BACKBONE|DICT|INTERRES
    71   34  104 1    
    72   35   36 2    
    73   37   38 2    
    74   37   39 am   BACKBONE|DICT|INTERRES
    75   39   40 1    
    76   39  105 1    
    77   40   41 1    
    78   40   42 1    
    79   40  106 1    
    80   41  107 1    
    81   41  108 1    
    82   41  109 1    
    83   42   43 2    
    84   42   44 am   BACKBONE|DICT|INTERRES
    85   44   45 1    
    86   44  110 1    
    87   45   46 1    
    88   45   47 1    
    89   45  111 1    
    90   46  112 1    
    91   46  113 1    
    92   46  114 1    
    93   47   48 2    
    94   47   49 am   BACKBONE|DICT|INTERRES
    95   49   50 1    
    96   49  115 1    
    97   50   51 1    
    98   50   52 1    
    99   50  116 1    
   100   51  117 1    
   101   51  118 1    
   102   51  119 1    
   103   52   53 2    
   104   52   54 am   BACKBONE|DICT|INTERRES
   105   54   55 1    
   106   54  120 1    
   107   55   56 1    
   108   55   57 1    
   109   55  121 1    
   110   56  122 1    
   111   56  123 1    
   112   56  124 1    
   113   57   58 2    
   114   57   59 am   BACKBONE|DICT|INTERRES
   115   59   60 1    
   116   59  125 1    
   117   60   61 1    
   118   60   62 1    
   119   60  126 1    
   120   61  127 1    
   121   61  128 1    
   122   61  129 1    
   123   62   63 2    
   124   62   64 am   BACKBONE|DICT|INTERRES
   125   64   65 1    
   126   64  130 1    
   127   65   66 1    
   128   65   69 1    
   129   65  131 1    
   130   66   67 am   BACKBONE|DICT|INTERRES
   131   66   68 2    
   132   67  132 1    
   133   67  133 1    
   134   69   70 1    
   135   69  134 1    
   136   69  135 1    
   137   70   71 1    
   138   71  136 1    
   139   71  137 1    
@<TRIPOS>SUBSTRUCTURE
     1 UNK         1 GROUP             0       ****    0 ROOT    
