@<TRIPOS>MOLECULE
3R137
137   139    1
SMALL
USER_CHARGES


@<TRIPOS>ATOM
      1 CA         31.0844   -0.6150   -0.2774 C.3       0 UNK        -0.2020 
      2 C          29.8786   -1.5377   -0.3548 C.2       0 UNK         0.4855 
      3 O          29.0597   -1.5602    0.5643 O.2       0 UNK        -0.5197 
      4 N          29.7586   -2.2800   -1.4626 N.am      1 UNK        -0.4892 
      5 CA         28.7347   -3.2892   -1.7937 C.3       1 UNK         0.0835 
      6 C6         28.6545   -4.4905   -0.8043 C.3       12 UNK        -0.0855 
      7 S7         30.2598   -5.2198   -0.3142 S.3       12 UNK        -0.2931 
      8 C8         30.6068   -6.3936   -1.6671 C.3       12 UNK         0.0378 
      9 C9         30.9200   -5.6644   -2.9645 C.ar      12 UNK        -0.0802 
     10 C10        32.0130   -4.7947   -3.0294 C.ar      12 UNK        -0.0944 
     11 C11        32.2428   -4.0308   -4.1752 C.ar      12 UNK        -0.0787 
     12 C12        31.3970   -4.1701   -5.2774 C.ar      12 UNK        -0.0862 
     13 C13        30.3073   -5.0426   -5.2278 C.ar      12 UNK        -0.0733 
     14 C14        30.0824   -5.8024   -4.0757 C.ar      12 UNK        -0.0832 
     15 C15        29.3358   -5.1180   -6.3945 C.3       12 UNK         0.0240 
     16 S16        27.7921   -4.2311   -6.0127 S.3       12 UNK        -0.2522 
     17 C17        28.3414   -2.4882   -5.9354 C.3       12 UNK        -0.0967 
     18 CA         27.4645   -1.5913   -6.8346 C.3       5 UNK         0.0660 
     19 N          26.0656   -1.5672   -6.3994 N.am      5 UNK        -0.4015 
     20 C          25.0434   -1.2386   -7.1995 C.2       4 UNK         0.4946 
     21 O          25.1753   -0.9134   -8.3795 O.2       4 UNK        -0.5353 
     22 CA         23.6426   -1.2390   -6.5667 C.3       4 UNK         0.0277 
     23 CB         23.1303   -2.6754   -6.3719 C.3       4 UNK        -0.1981 
     24 N          23.5956   -0.5188   -5.2918 N.am      4 UNK        -0.4209 
     25 C          23.8474    0.7906   -5.1521 C.2       3 UNK         0.4942 
     26 O          24.1294    1.5361   -6.0874 O.2       3 UNK        -0.5208 
     27 CA         23.8037    1.3740   -3.7312 C.3       3 UNK         0.0250 
     28 CB         22.3953    1.9019   -3.4148 C.3       3 UNK        -0.1990 
     29 N          24.2248    0.4486   -2.6764 N.am      3 UNK        -0.4232 
     30 C          25.4161   -0.1614   -2.5933 C.2       2 UNK         0.4993 
     31 O          26.2968   -0.0639   -3.4544 O.2       2 UNK        -0.5286 
     32 CA         25.6426   -0.9818   -1.3070 C.3       2 UNK         0.0209 
     33 CB         24.4719   -1.9469   -1.0078 C.3       2 UNK        -0.1931 
     34 N          26.9217   -1.6992   -1.2789 N.am      2 UNK        -0.4546 
     35 C          27.3223   -2.7153   -2.0530 C.2       1 UNK         0.5154 
     36 O          26.6243   -3.2165   -2.9349 O.2       1 UNK        -0.5181 
     37 C          28.0400   -0.1680   -6.9778 C.2       5 UNK         0.5014 
     38 O          28.8815    0.0528   -7.8517 O.2       5 UNK        -0.5248 
     39 N          27.5497    0.7854   -6.1698 N.am      6 UNK        -0.4434 
     40 CA         27.8496    2.2112   -6.3228 C.3       6 UNK         0.0363 
     41 CB         27.3120    2.9982   -5.1185 C.3       6 UNK        -0.1936 
     42 C          27.3015    2.7769   -7.6462 C.2       6 UNK         0.5081 
     43 O          28.0407    3.4485   -8.3647 O.2       6 UNK        -0.5248 
     44 N          26.0423    2.4527   -7.9792 N.am      7 UNK        -0.4718 
     45 CA         25.3908    2.8078   -9.2464 C.3       7 UNK         0.0273 
     46 CB         23.8964    2.4566   -9.1792 C.3       7 UNK        -0.1935 
     47 C          26.0455    2.1490  -10.4730 C.2       7 UNK         0.5018 
     48 O          26.0976    2.7706  -11.5345 O.2       7 UNK        -0.5186 
     49 N          26.5754    0.9300  -10.2968 N.am      8 UNK        -0.4240 
     50 CA         27.3956    0.2182  -11.2832 C.3       8 UNK         0.0235 
     51 CB         27.4573   -1.2724  -10.9098 C.3       8 UNK        -0.2000 
     52 C          28.8191    0.7939  -11.4459 C.2       8 UNK         0.4941 
     53 O          29.5485    0.3200  -12.3180 O.2       8 UNK        -0.5273 
     54 N          29.1896    1.7878  -10.6229 N.am      9 UNK        -0.4262 
     55 CA         30.4704    2.4984  -10.5926 C.3       9 UNK         0.0264 
     56 CB         30.7170    3.2659  -11.9101 C.3       9 UNK        -0.1955 
     57 C          31.6508    1.6038  -10.1734 C.2       9 UNK         0.5031 
     58 O          32.7424    1.7302  -10.7344 O.2       9 UNK        -0.5390 
     59 N          31.4214    0.7333   -9.1795 N.am      10 UNK        -0.4204 
     60 CA         32.4625   -0.0391   -8.5001 C.3       10 UNK         0.0237 
     61 CB         31.8857   -1.4079   -8.0850 C.3       10 UNK        -0.1985 
     62 C          33.0421    0.7823   -7.3277 C.2       10 UNK         0.4970 
     63 O          33.3272    1.9703   -7.4956 O.2       10 UNK        -0.4914 
     64 N          33.2274    0.1440   -6.1666 N.am      11 UNK        -0.4285 
     65 CA         33.6678    0.7764   -4.9152 C.3       11 UNK         0.1007 
     66 C          32.6462    1.8025   -4.3403 C.2       11 UNK         0.5703 
     67 N          33.1031    2.7215   -3.4998 N.am      11 UNK        -0.7361 
     68 O          31.4500    1.7600   -4.6230 O.2       11 UNK        -0.4986 
     69 C69        34.0897   -0.2886   -3.8667 C.3       12 UNK        -0.0947 
     70 S70        32.7562   -1.4570   -3.4347 S.3       12 UNK        -0.2240 
     71 C71        33.3534   -2.9975   -4.1918 C.3       12 UNK         0.0194 
     72 H72        32.0053   -1.1962   -0.2312 H         1 UNK         0.0906 
     73 H73        31.0349    0.0141    0.6113 H         1 UNK         0.0906 
     74 H74        31.1290    0.0366   -1.1502 H         1 UNK         0.0906 
     75 H75        30.4759   -2.1822   -2.1695 H         1 UNK         0.3140 
     76 H76        29.0492   -3.6804   -2.7596 H         1 UNK         0.1085 
     77 H77        28.1576   -4.1789    0.1165 H         1 UNK         0.0836 
     78 H78        28.0292   -5.2810   -1.2240 H         1 UNK         0.0836 
     79 H79        31.4634   -7.0099   -1.3910 H         1 UNK         0.0731 
     80 H80        29.7614   -7.0731   -1.7858 H         1 UNK         0.0731 
     81 H81        32.6488   -4.6676   -2.1635 H         1 UNK         0.1312 
     82 H82        31.5632   -3.5700   -6.1597 H         1 UNK         0.1406 
     83 H83        29.2226   -6.4574   -4.0289 H         1 UNK         0.1631 
     84 H84        29.1027   -6.1623   -6.6072 H         1 UNK         0.0717 
     85 H85        29.7779   -4.7093   -7.3046 H         1 UNK         0.0717 
     86 H86        28.3132   -2.1484   -4.8990 H         1 UNK         0.0934 
     87 H87        29.3832   -2.4278   -6.2477 H         1 UNK         0.0934 
     88 H88        27.4864   -2.0295   -7.8341 H         1 UNK         0.0739 
     89 H89        25.8885   -1.8054   -5.4329 H         1 UNK         0.3093 
     90 H90        22.9700   -0.7289   -7.2599 H         1 UNK         0.0818 
     91 H91        23.1502   -3.2263   -7.3134 H         1 UNK         0.0819 
     92 H92        23.7377   -3.2318   -5.6566 H         1 UNK         0.0819 
     93 H93        22.0999   -2.6842   -6.0160 H         1 UNK         0.0819 
     94 H94        23.3749   -1.0552   -4.4657 H         1 UNK         0.3041 
     95 H95        24.4924    2.2199   -3.7066 H         1 UNK         0.0784 
     96 H96        22.0657    2.6129   -4.1741 H         1 UNK         0.0793 
     97 H97        21.6593    1.0975   -3.3808 H         1 UNK         0.0793 
     98 H98        22.3708    2.4220   -2.4569 H         1 UNK         0.0793 
     99 H99        23.5682    0.3124   -1.9214 H         1 UNK         0.3024 
    100 H100       25.6971   -0.2579   -0.4921 H         1 UNK         0.1171 
    101 H101       23.5501   -1.4076   -0.7887 H         1 UNK         0.0786 
    102 H102       24.2678   -2.6127   -1.8472 H         1 UNK         0.0786 
    103 H103       24.6855   -2.5677   -0.1374 H         1 UNK         0.0786 
    104 H104       27.5876   -1.3951   -0.5723 H         1 UNK         0.2977 
    105 H105       26.9046    0.5236   -5.4318 H         1 UNK         0.3127 
    106 H106       28.9368    2.3191   -6.3361 H         1 UNK         0.0770 
    107 H107       26.2237    2.9861   -5.0802 H         1 UNK         0.0814 
    108 H108       27.6222    4.0425   -5.1705 H         1 UNK         0.0814 
    109 H109       27.6879    2.5932   -4.1785 H         1 UNK         0.0814 
    110 H110       25.4702    1.9426   -7.3084 H         1 UNK         0.2983 
    111 H111       25.4813    3.8890   -9.3718 H         1 UNK         0.0947 
    112 H112       23.7404    1.3902   -9.0122 H         1 UNK         0.0806 
    113 H113       23.3890    2.7209  -10.1080 H         1 UNK         0.0806 
    114 H114       23.3990    2.9966   -8.3734 H         1 UNK         0.0806 
    115 H115       26.4065    0.4569   -9.4154 H         1 UNK         0.3000 
    116 H116       26.9020    0.3034  -12.2536 H         1 UNK         0.0850 
    117 H117       27.9373   -1.8516  -11.6996 H         1 UNK         0.0810 
    118 H118       26.4620   -1.6913  -10.7607 H         1 UNK         0.0810 
    119 H119       28.0335   -1.4325   -9.9995 H         1 UNK         0.0810 
    120 H120       28.5250    2.0937   -9.9208 H         1 UNK         0.3040 
    121 H121       30.3755    3.2440   -9.8019 H         1 UNK         0.0766 
    122 H122       30.8937    2.5905  -12.7477 H         1 UNK         0.0812 
    123 H123       31.5913    3.9125  -11.8265 H         1 UNK         0.0812 
    124 H124       29.8685    3.9014  -12.1634 H         1 UNK         0.0812 
    125 H125       30.4884    0.6757   -8.7764 H         1 UNK         0.3205 
    126 H126       33.2847   -0.2276   -9.1933 H         1 UNK         0.0754 
    127 H127       32.6714   -2.0753   -7.7292 H         1 UNK         0.0769 
    128 H128       31.4075   -1.9051   -8.9294 H         1 UNK         0.0769 
    129 H129       31.1398   -1.3090   -7.2970 H         1 UNK         0.0769 
    130 H130       32.9313   -0.8156   -6.0875 H         1 UNK         0.2981 
    131 H131       34.5637    1.3487   -5.1641 H         1 UNK         0.0541 
    132 H132       32.4567    3.3886   -3.1091 H         1 UNK         0.3459 
    133 H133       34.0790    2.7649   -3.2514 H         1 UNK         0.3459 
    134 H134       34.4319    0.1915   -2.9484 H         1 UNK         0.0612 
    135 H135       34.9505   -0.8466   -4.2383 H         1 UNK         0.0612 
    136 H136       34.2227   -3.3625   -3.6427 H         1 UNK         0.0624 
    137 H137       33.6823   -2.8089   -5.2147 H         1 UNK         0.0624 
@<TRIPOS>BOND
     1    1    2 1    
     2    1   72 1    
     3    1   73 1    
     4    1   74 1    
     5    2    3 2    
     6    2    4 am   BACKBONE|DICT|INTERRES
     7    4    5 1    
     8    4   75 1    
     9    5    6 1    
    10    5   35 1    
    11    5   76 1    
    12    6    7 1    
    13    6   77 1    
    14    6   78 1    
    15    7    8 1    
    16    8    9 1    
    17    8   79 1    
    18    8   80 1    
    19    9   10 ar   
    20    9   14 ar   
    21   10   11 ar   
    22   10   81 1    
    23   11   12 ar   
    24   11   71 1    
    25   12   13 ar   
    26   12   82 1    
    27   13   14 ar   
    28   13   15 1    
    29   14   83 1    
    30   15   16 1    
    31   15   84 1    
    32   15   85 1    
    33   16   17 1    
    34   17   18 1    
    35   17   86 1    
    36   17   87 1    
    37   18   19 1    
    38   18   37 1    
    39   18   88 1    
    40   19   20 am   BACKBONE|DICT|INTERRES
    41   19   89 1    
    42   20   21 2    
    43   20   22 1    
    44   22   23 1    
    45   22   24 1    
    46   22   90 1    
    47   23   91 1    
    48   23   92 1    
    49   23   93 1    
    50   24   25 am   BACKBONE|DICT|INTERRES
    51   24   94 1    
    52   25   26 2    
    53   25   27 1    
    54   27   28 1    
    55   27   29 1    
    56   27   95 1    
    57   28   96 1    
    58   28   97 1    
    59   28   98 1    
    60   29   30 am   BACKBONE|DICT|INTERRES
    61   29   99 1    
    62   30   31 2    
    63   30   32 1    
    64   32   33 1    
    65   32   34 1    
    66   32  100 1    
    67   33  101 1    
    68   33  102 1    
    69   33  103 1    
    70   34   35 am   BACKBONE|DICT|INTERRES
    71   34  104 1    
    72   35   36 2    
    73   37   38 2    
    74   37   39 am   BACKBONE|DICT|INTERRES
    75   39   40 1    
    76   39  105 1    
    77   40   41 1    
    78   40   42 1    
    79   40  106 1    
    80   41  107 1    
    81   41  108 1    
    82   41  109 1    
    83   42   43 2    
    84   42   44 am   BACKBONE|DICT|INTERRES
    85   44   45 1    
    86   44  110 1    
    87   45   46 1    
    88   45   47 1    
    89   45  111 1    
    90   46  112 1    
    91   46  113 1    
    92   46  114 1    
    93   47   48 2    
    94   47   49 am   BACKBONE|DICT|INTERRES
    95   49   50 1    
    96   49  115 1    
    97   50   51 1    
    98   50   52 1    
    99   50  116 1    
   100   51  117 1    
   101   51  118 1    
   102   51  119 1    
   103   52   53 2    
   104   52   54 am   BACKBONE|DICT|INTERRES
   105   54   55 1    
   106   54  120 1    
   107   55   56 1    
   108   55   57 1    
   109   55  121 1    
   110   56  122 1    
   111   56  123 1    
   112   56  124 1    
   113   57   58 2    
   114   57   59 am   BACKBONE|DICT|INTERRES
   115   59   60 1    
   116   59  125 1    
   117   60   61 1    
   118   60   62 1    
   119   60  126 1    
   120   61  127 1    
   121   61  128 1    
   122   61  129 1    
   123   62   63 2    
   124   62   64 am   BACKBONE|DICT|INTERRES
   125   64   65 1    
   126   64  130 1    
   127   65   66 1    
   128   65   69 1    
   129   65  131 1    
   130   66   67 am   BACKBONE|DICT|INTERRES
   131   66   68 2    
   132   67  132 1    
   133   67  133 1    
   134   69   70 1    
   135   69  134 1    
   136   69  135 1    
   137   70   71 1    
   138   71  136 1    
   139   71  137 1    
@<TRIPOS>SUBSTRUCTURE
     1 UNK         1 GROUP             0       ****    0 ROOT    
