@<TRIPOS>MOLECULE
3R137
137   139    1
SMALL
USER_CHARGES


@<TRIPOS>ATOM
      1 CA         29.9804    1.7844   -3.0885 C.3       0 UNK        -0.2020 
      2 C          29.4204    0.3722   -3.0279 C.2       0 UNK         0.4855 
      3 O          28.9697   -0.1499   -4.0447 O.2       0 UNK        -0.5197 
      4 N          29.4459   -0.2442   -1.8409 N.am      1 UNK        -0.4892 
      5 CA         28.8358   -1.5466   -1.5650 C.3       1 UNK         0.0835 
      6 C6         29.5491   -2.2315   -0.3726 C.3       12 UNK        -0.0855 
      7 S7         29.1341   -3.9996   -0.1967 S.3       12 UNK        -0.2931 
      8 C8         30.5880   -4.8064   -0.9464 C.3       12 UNK         0.0378 
      9 C9         30.6462   -4.6197   -2.4575 C.ar      12 UNK        -0.0802 
     10 C10        31.7774   -4.0600   -3.0621 C.ar      12 UNK        -0.0944 
     11 C11        31.8455   -3.9276   -4.4533 C.ar      12 UNK        -0.0787 
     12 C12        30.7592   -4.3263   -5.2373 C.ar      12 UNK        -0.0862 
     13 C13        29.6220   -4.8829   -4.6449 C.ar      12 UNK        -0.0733 
     14 C14        29.5803   -5.0436   -3.2573 C.ar      12 UNK        -0.0832 
     15 C15        28.4446   -5.3229   -5.5053 C.3       12 UNK         0.0240 
     16 S16        26.9075   -4.4529   -5.0622 S.3       12 UNK        -0.2522 
     17 C17        27.3437   -2.7188   -5.4237 C.3       12 UNK        -0.0967 
     18 CA         26.4696   -2.0935   -6.5348 C.3       5 UNK         0.0660 
     19 N          25.0367   -2.1966   -6.2458 N.am      5 UNK        -0.4015 
     20 C          24.0533   -2.0650   -7.1455 C.2       4 UNK         0.4946 
     21 O          24.2448   -1.8601   -8.3445 O.2       4 UNK        -0.5353 
     22 CA         22.6103   -2.1782   -6.6199 C.3       4 UNK         0.0277 
     23 CB         22.1409   -3.6417   -6.6563 C.3       4 UNK        -0.1981 
     24 N          22.4581   -1.6527   -5.2599 N.am      4 UNK        -0.4209 
     25 C          22.4614   -0.3478   -4.9511 C.2       3 UNK         0.4942 
     26 O          22.5009    0.5528   -5.7893 O.2       3 UNK        -0.5208 
     27 CA         22.4526    0.0179   -3.4531 C.3       3 UNK         0.0250 
     28 CB         21.0097    0.1763   -2.9473 C.3       3 UNK        -0.1990 
     29 N          23.1747   -0.9260   -2.5862 N.am      3 UNK        -0.4232 
     30 C          24.4676   -1.2522   -2.7229 C.2       2 UNK         0.4993 
     31 O          25.1735   -0.8303   -3.6397 O.2       2 UNK        -0.5286 
     32 CA         25.0440   -2.2613   -1.7131 C.3       2 UNK         0.0209 
     33 CB         24.4919   -3.6714   -1.9846 C.3       2 UNK        -0.1931 
     34 N          26.5083   -2.3152   -1.7712 N.am      2 UNK        -0.4546 
     35 C          27.3239   -1.3571   -1.3115 C.2       1 UNK         0.5154 
     36 O          26.9289   -0.3682   -0.6856 O.2       1 UNK        -0.5181 
     37 C          26.8818   -0.6287   -6.7627 C.2       5 UNK         0.5014 
     38 O          27.7083   -0.3641   -7.6351 O.2       5 UNK        -0.5248 
     39 N          26.2682    0.2940   -6.0049 N.am      6 UNK        -0.4434 
     40 CA         26.5069    1.7408   -6.0149 C.3       6 UNK         0.0363 
     41 CB         25.6464    2.3974   -4.9244 C.3       6 UNK        -0.1936 
     42 C          26.2967    2.4403   -7.3727 C.2       6 UNK         0.5081 
     43 O          26.7660    3.5652   -7.5437 O.2       6 UNK        -0.5248 
     44 N          25.6546    1.7626   -8.3348 N.am      7 UNK        -0.4718 
     45 CA         25.6205    2.1481   -9.7493 C.3       7 UNK         0.0273 
     46 CB         24.6712    1.2019  -10.5013 C.3       7 UNK        -0.1935 
     47 C          27.0143    2.1582  -10.4151 C.2       7 UNK         0.5018 
     48 O          27.2044    2.8795  -11.3949 O.2       7 UNK        -0.5186 
     49 N          27.9614    1.3867   -9.8644 N.am      8 UNK        -0.4240 
     50 CA         29.3722    1.3550  -10.2377 C.3       8 UNK         0.0235 
     51 CB         29.6484    0.1014  -11.0892 C.3       8 UNK        -0.2000 
     52 C          30.2210    1.4121   -8.9563 C.2       8 UNK         0.4941 
     53 O          31.0948    0.5658   -8.7559 O.2       8 UNK        -0.5273 
     54 N          29.9486    2.4205   -8.1102 N.am      9 UNK        -0.4262 
     55 CA         30.5314    2.6349   -6.7746 C.3       9 UNK         0.0264 
     56 CB         29.9514    3.9268   -6.1717 C.3       9 UNK        -0.1955 
     57 C          32.0701    2.6824   -6.6993 C.2       9 UNK         0.5031 
     58 O          32.6218    2.5010   -5.6135 O.2       9 UNK        -0.5390 
     59 N          32.7381    2.9213   -7.8352 N.am      10 UNK        -0.4204 
     60 CA         34.1918    2.8432   -7.9821 C.3       10 UNK         0.0237 
     61 CB         34.5887    3.4168   -9.3526 C.3       10 UNK        -0.1985 
     62 C          34.7571    1.4188   -7.8108 C.2       10 UNK         0.4970 
     63 O          35.9431    1.2956   -7.5018 O.2       10 UNK        -0.4914 
     64 N          33.9258    0.3837   -8.0216 N.am      11 UNK        -0.4285 
     65 CA         34.2793   -1.0447   -7.9185 C.3       11 UNK         0.1007 
     66 C          35.3417   -1.5298   -8.9562 C.2       11 UNK         0.5703 
     67 N          35.5757   -0.8105  -10.0481 N.am      11 UNK        -0.7361 
     68 O          35.9366   -2.5937   -8.7987 O.2       11 UNK        -0.4986 
     69 C69        34.5943   -1.4738   -6.4516 C.3       12 UNK        -0.0947 
     70 S70        33.0809   -1.6295   -5.4396 S.3       12 UNK        -0.2240 
     71 C71        33.1146   -3.4209   -5.1216 C.3       12 UNK         0.0194 
     72 H72        30.1990    2.1807   -2.0972 H         1 UNK         0.0906 
     73 H73        30.9019    1.7945   -3.6689 H         1 UNK         0.0906 
     74 H74        29.2633    2.4502   -3.5675 H         1 UNK         0.0906 
     75 H75        29.7882    0.2550   -1.0322 H         1 UNK         0.3140 
     76 H76        28.9653   -2.1741   -2.4505 H         1 UNK         0.1085 
     77 H77        29.3136   -1.7235    0.5648 H         1 UNK         0.0836 
     78 H78        30.6307   -2.1445   -0.4897 H         1 UNK         0.0836 
     79 H79        30.5448   -5.8746   -0.7295 H         1 UNK         0.0731 
     80 H80        31.4951   -4.4347   -0.4670 H         1 UNK         0.0731 
     81 H81        32.6173   -3.7515   -2.4546 H         1 UNK         0.1312 
     82 H82        30.8092   -4.2173   -6.3123 H         1 UNK         0.1406 
     83 H83        28.7079   -5.4877   -2.7967 H         1 UNK         0.1631 
     84 H84        28.2929   -6.3956   -5.3793 H         1 UNK         0.0717 
     85 H85        28.6493   -5.1618   -6.5650 H         1 UNK         0.0717 
     86 H86        27.2518   -2.1530   -4.4968 H         1 UNK         0.0934 
     87 H87        28.3973   -2.6502   -5.7006 H         1 UNK         0.0934 
     88 H88        26.6647   -2.6367   -7.4621 H         1 UNK         0.0739 
     89 H89        24.7973   -2.2951   -5.2698 H         1 UNK         0.3093 
     90 H90        21.9690   -1.5983   -7.2876 H         1 UNK         0.0818 
     91 H91        22.2203   -4.0505   -7.6648 H         1 UNK         0.0819 
     92 H92        22.7380   -4.2767   -6.0003 H         1 UNK         0.0819 
     93 H93        21.0974   -3.7317   -6.3540 H         1 UNK         0.0819 
     94 H94        22.3951   -2.3243   -4.5088 H         1 UNK         0.3041 
     95 H95        22.9526    0.9843   -3.3593 H         1 UNK         0.0784 
     96 H96        20.4574    0.8902   -3.5604 H         1 UNK         0.0793 
     97 H97        20.4646   -0.7680   -2.9761 H         1 UNK         0.0793 
     98 H98        20.9860    0.5480   -1.9227 H         1 UNK         0.0793 
     99 H99        22.6502   -1.3235   -1.8197 H         1 UNK         0.3024 
    100 H100       24.7486   -1.9475   -0.7092 H         1 UNK         0.1171 
    101 H101       24.9030   -4.3987   -1.2840 H         1 UNK         0.0786 
    102 H102       23.4073   -3.7018   -1.8748 H         1 UNK         0.0786 
    103 H103       24.7264   -4.0118   -2.9937 H         1 UNK         0.0786 
    104 H104       26.9086   -3.0950   -2.2719 H         1 UNK         0.2977 
    105 H105       25.6769   -0.0508   -5.2508 H         1 UNK         0.3127 
    106 H106       27.5558    1.8788   -5.7479 H         1 UNK         0.0770 
    107 H107       24.5820    2.2714   -5.1245 H         1 UNK         0.0814 
    108 H108       25.8434    3.4684   -4.8613 H         1 UNK         0.0814 
    109 H109       25.8571    1.9710   -3.9431 H         1 UNK         0.0814 
    110 H110       25.2946    0.8466   -8.1054 H         1 UNK         0.2983 
    111 H111       25.2218    3.1629   -9.8114 H         1 UNK         0.0947 
    112 H112       25.0108    0.1662  -10.4503 H         1 UNK         0.0806 
    113 H113       24.6034    1.4725  -11.5559 H         1 UNK         0.0806 
    114 H114       23.6619    1.2433  -10.0912 H         1 UNK         0.0806 
    115 H115       27.7243    0.8202   -9.0496 H         1 UNK         0.3000 
    116 H116       29.6285    2.2379  -10.8271 H         1 UNK         0.0850 
    117 H117       30.6944    0.0575  -11.3951 H         1 UNK         0.0810 
    118 H118       29.0443    0.0985  -11.9966 H         1 UNK         0.0810 
    119 H119       29.4287   -0.8133  -10.5368 H         1 UNK         0.0810 
    120 H120       29.2039    3.0547   -8.3672 H         1 UNK         0.3040 
    121 H121       30.2148    1.7920   -6.1566 H         1 UNK         0.0766 
    122 H122       28.8752    3.8585   -6.0256 H         1 UNK         0.0812 
    123 H123       30.1494    4.7910   -6.8068 H         1 UNK         0.0812 
    124 H124       30.3880    4.1378   -5.1943 H         1 UNK         0.0812 
    125 H125       32.2001    3.0677   -8.6763 H         1 UNK         0.3205 
    126 H126       34.6409    3.4665   -7.2059 H         1 UNK         0.0754 
    127 H127       35.6715    3.3972   -9.4855 H         1 UNK         0.0769 
    128 H128       34.2715    4.4548   -9.4555 H         1 UNK         0.0769 
    129 H129       34.1492    2.8474  -10.1726 H         1 UNK         0.0769 
    130 H130       32.9582    0.5677   -8.2749 H         1 UNK         0.2981 
    131 H131       33.3787   -1.5785   -8.2241 H         1 UNK         0.0541 
    132 H132       36.2525   -1.1383  -10.7189 H         1 UNK         0.3459 
    133 H133       35.0843    0.0541  -10.2052 H         1 UNK         0.3459 
    134 H134       35.1216   -2.4279   -6.4200 H         1 UNK         0.0612 
    135 H135       35.2652   -0.7643   -5.9667 H         1 UNK         0.0612 
    136 H136       33.2604   -3.9489   -6.0656 H         1 UNK         0.0624 
    137 H137       33.9826   -3.6558   -4.5035 H         1 UNK         0.0624 
@<TRIPOS>BOND
     1    1    2 1    
     2    1   72 1    
     3    1   73 1    
     4    1   74 1    
     5    2    3 2    
     6    2    4 am   BACKBONE|DICT|INTERRES
     7    4    5 1    
     8    4   75 1    
     9    5    6 1    
    10    5   35 1    
    11    5   76 1    
    12    6    7 1    
    13    6   77 1    
    14    6   78 1    
    15    7    8 1    
    16    8    9 1    
    17    8   79 1    
    18    8   80 1    
    19    9   10 ar   
    20    9   14 ar   
    21   10   11 ar   
    22   10   81 1    
    23   11   12 ar   
    24   11   71 1    
    25   12   13 ar   
    26   12   82 1    
    27   13   14 ar   
    28   13   15 1    
    29   14   83 1    
    30   15   16 1    
    31   15   84 1    
    32   15   85 1    
    33   16   17 1    
    34   17   18 1    
    35   17   86 1    
    36   17   87 1    
    37   18   19 1    
    38   18   37 1    
    39   18   88 1    
    40   19   20 am   BACKBONE|DICT|INTERRES
    41   19   89 1    
    42   20   21 2    
    43   20   22 1    
    44   22   23 1    
    45   22   24 1    
    46   22   90 1    
    47   23   91 1    
    48   23   92 1    
    49   23   93 1    
    50   24   25 am   BACKBONE|DICT|INTERRES
    51   24   94 1    
    52   25   26 2    
    53   25   27 1    
    54   27   28 1    
    55   27   29 1    
    56   27   95 1    
    57   28   96 1    
    58   28   97 1    
    59   28   98 1    
    60   29   30 am   BACKBONE|DICT|INTERRES
    61   29   99 1    
    62   30   31 2    
    63   30   32 1    
    64   32   33 1    
    65   32   34 1    
    66   32  100 1    
    67   33  101 1    
    68   33  102 1    
    69   33  103 1    
    70   34   35 am   BACKBONE|DICT|INTERRES
    71   34  104 1    
    72   35   36 2    
    73   37   38 2    
    74   37   39 am   BACKBONE|DICT|INTERRES
    75   39   40 1    
    76   39  105 1    
    77   40   41 1    
    78   40   42 1    
    79   40  106 1    
    80   41  107 1    
    81   41  108 1    
    82   41  109 1    
    83   42   43 2    
    84   42   44 am   BACKBONE|DICT|INTERRES
    85   44   45 1    
    86   44  110 1    
    87   45   46 1    
    88   45   47 1    
    89   45  111 1    
    90   46  112 1    
    91   46  113 1    
    92   46  114 1    
    93   47   48 2    
    94   47   49 am   BACKBONE|DICT|INTERRES
    95   49   50 1    
    96   49  115 1    
    97   50   51 1    
    98   50   52 1    
    99   50  116 1    
   100   51  117 1    
   101   51  118 1    
   102   51  119 1    
   103   52   53 2    
   104   52   54 am   BACKBONE|DICT|INTERRES
   105   54   55 1    
   106   54  120 1    
   107   55   56 1    
   108   55   57 1    
   109   55  121 1    
   110   56  122 1    
   111   56  123 1    
   112   56  124 1    
   113   57   58 2    
   114   57   59 am   BACKBONE|DICT|INTERRES
   115   59   60 1    
   116   59  125 1    
   117   60   61 1    
   118   60   62 1    
   119   60  126 1    
   120   61  127 1    
   121   61  128 1    
   122   61  129 1    
   123   62   63 2    
   124   62   64 am   BACKBONE|DICT|INTERRES
   125   64   65 1    
   126   64  130 1    
   127   65   66 1    
   128   65   69 1    
   129   65  131 1    
   130   66   67 am   BACKBONE|DICT|INTERRES
   131   66   68 2    
   132   67  132 1    
   133   67  133 1    
   134   69   70 1    
   135   69  134 1    
   136   69  135 1    
   137   70   71 1    
   138   71  136 1    
   139   71  137 1    
@<TRIPOS>SUBSTRUCTURE
     1 UNK         1 GROUP             0       ****    0 ROOT    
