@<TRIPOS>MOLECULE
3R137
137   139    1
SMALL
USER_CHARGES


@<TRIPOS>ATOM
      1 CA         29.5585   -8.4092   -6.1093 C.3       0 UNK        -0.2020 
      2 C          28.5986   -7.3108   -5.6787 C.2       0 UNK         0.4855 
      3 O          27.4339   -7.5904   -5.3892 O.2       0 UNK        -0.5197 
      4 N          29.0728   -6.0596   -5.6360 N.am      1 UNK        -0.4892 
      5 CA         28.3052   -4.8716   -5.2432 C.3       1 UNK         0.0835 
      6 C6         29.2217   -3.7257   -4.7427 C.3       12 UNK        -0.0855 
      7 S7         30.2884   -4.2300   -3.3505 S.3       12 UNK        -0.2931 
      8 C8         29.7166   -3.1158   -2.0204 C.3       12 UNK         0.0378 
      9 C9         30.2258   -1.6707   -2.0740 C.ar      12 UNK        -0.0802 
     10 C10        31.1352   -1.2022   -3.0342 C.ar      12 UNK        -0.0944 
     11 C11        31.5869    0.1221   -3.0082 C.ar      12 UNK        -0.0787 
     12 C12        31.1207    0.9899   -2.0170 C.ar      12 UNK        -0.0862 
     13 C13        30.2177    0.5385   -1.0510 C.ar      12 UNK        -0.0733 
     14 C14        29.7765   -0.7871   -1.0879 C.ar      12 UNK        -0.0832 
     15 C15        29.7384    1.4657    0.0559 C.3       12 UNK         0.0240 
     16 S16        27.9958    1.9410   -0.1626 S.3       12 UNK        -0.2522 
     17 C17        28.0990    3.1210   -1.5516 C.3       12 UNK        -0.0967 
     18 CA         27.6074    2.5340   -2.8997 C.3       5 UNK         0.0660 
     19 N          26.2859    1.8949   -2.7636 N.am      5 UNK        -0.4015 
     20 C          25.4676    1.4612   -3.7319 C.2       4 UNK         0.4946 
     21 O          25.6047    1.7281   -4.9259 O.2       4 UNK        -0.5353 
     22 CA         24.2621    0.6163   -3.2839 C.3       4 UNK         0.0277 
     23 CB         23.1279    1.5265   -2.7843 C.3       4 UNK        -0.1981 
     24 N          23.7555   -0.2158   -4.3801 N.am      4 UNK        -0.4209 
     25 C          24.4149   -1.2479   -4.9236 C.2       3 UNK         0.4942 
     26 O          25.4601   -1.7184   -4.4638 O.2       3 UNK        -0.5208 
     27 CA         23.8043   -1.8475   -6.1993 C.3       3 UNK         0.0250 
     28 CB         23.6975   -0.8019   -7.3283 C.3       3 UNK        -0.1990 
     29 N          24.6402   -2.9626   -6.6315 N.am      3 UNK        -0.4232 
     30 C          24.2926   -3.9528   -7.4580 C.2       2 UNK         0.4993 
     31 O          23.1836   -4.0335   -7.9883 O.2       2 UNK        -0.5286 
     32 CA         25.3268   -5.0629   -7.7336 C.3       2 UNK         0.0209 
     33 CB         25.9442   -4.9043   -9.1382 C.3       2 UNK        -0.1931 
     34 N          26.3672   -5.2235   -6.7032 N.am      2 UNK        -0.4546 
     35 C          27.3921   -4.4151   -6.4015 C.2       1 UNK         0.5154 
     36 O          27.6326   -3.3661   -7.0014 O.2       1 UNK        -0.5181 
     37 C          27.7381    3.6137   -3.9986 C.2       5 UNK         0.5014 
     38 O          28.7972    3.7153   -4.6171 O.2       5 UNK        -0.5248 
     39 N          26.6765    4.4011   -4.2207 N.am      6 UNK        -0.4434 
     40 CA         26.6174    5.4537   -5.2386 C.3       6 UNK         0.0363 
     41 CB         25.4058    6.3559   -4.9524 C.3       6 UNK        -0.1936 
     42 C          26.5620    4.9325   -6.6889 C.2       6 UNK         0.5081 
     43 O          26.9396    5.6733   -7.5975 O.2       6 UNK        -0.5248 
     44 N          26.0792    3.6994   -6.8903 N.am      7 UNK        -0.4718 
     45 CA         25.8838    3.0715   -8.2022 C.3       7 UNK         0.0273 
     46 CB         24.3708    2.9300   -8.4479 C.3       7 UNK        -0.1935 
     47 C          26.5875    1.7069   -8.3247 C.2       7 UNK         0.5018 
     48 O          26.4840    1.0790   -9.3798 O.2       7 UNK        -0.5186 
     49 N          27.2520    1.2572   -7.2517 N.am      8 UNK        -0.4240 
     50 CA         27.9146   -0.0397   -7.1126 C.3       8 UNK         0.0235 
     51 CB         28.4990   -0.1486   -5.6954 C.3       8 UNK        -0.2000 
     52 C          28.9884   -0.3049   -8.1824 C.2       8 UNK         0.4941 
     53 O          29.7526    0.5964   -8.5347 O.2       8 UNK        -0.5273 
     54 N          29.0239   -1.5502   -8.6702 N.am      9 UNK        -0.4262 
     55 CA         29.8747   -1.9861   -9.7795 C.3       9 UNK         0.0264 
     56 CB         29.2758   -3.2597  -10.3985 C.3       9 UNK        -0.1955 
     57 C          31.3361   -2.2280   -9.3727 C.2       9 UNK         0.5031 
     58 O          32.2320   -2.0385  -10.1965 O.2       9 UNK        -0.5390 
     59 N          31.5555   -2.6524   -8.1212 N.am      10 UNK        -0.4204 
     60 CA         32.8703   -3.0317   -7.5915 C.3       10 UNK         0.0237 
     61 CB         32.6805   -3.8818   -6.3251 C.3       10 UNK        -0.1985 
     62 C          33.8080   -1.8449   -7.3038 C.2       10 UNK         0.4970 
     63 O          34.9959   -2.0736   -7.0721 O.2       10 UNK        -0.4914 
     64 N          33.2764   -0.6157   -7.2992 N.am      11 UNK        -0.4285 
     65 CA         34.0257    0.6154   -7.0013 C.3       11 UNK         0.1007 
     66 C          35.0208    1.0586   -8.1141 C.2       11 UNK         0.5703 
     67 N          34.9639    0.5030   -9.3195 N.am      11 UNK        -0.7361 
     68 O          35.8642    1.9196   -7.8750 O.2       11 UNK        -0.4986 
     69 C69        33.0923    1.7910   -6.6004 C.3       12 UNK        -0.0947 
     70 S70        31.7358    1.3689   -5.4544 S.3       12 UNK        -0.2240 
     71 C71        32.5903    0.6114   -4.0426 C.3       12 UNK         0.0194 
     72 H72        30.5537   -8.0206   -6.3251 H         1 UNK         0.0906 
     73 H73        29.6501   -9.1565   -5.3215 H         1 UNK         0.0906 
     74 H74        29.1850   -8.9030   -7.0060 H         1 UNK         0.0906 
     75 H75        30.0382   -5.8896   -5.8767 H         1 UNK         0.3140 
     76 H76        27.6499   -5.1430   -4.4120 H         1 UNK         0.1085 
     77 H77        28.6123   -2.8744   -4.4332 H         1 UNK         0.0836 
     78 H78        29.8619   -3.3632   -5.5465 H         1 UNK         0.0836 
     79 H79        30.0343   -3.5496   -1.0712 H         1 UNK         0.0731 
     80 H80        28.6255   -3.1156   -2.0043 H         1 UNK         0.0731 
     81 H81        31.5084   -1.8601   -3.8039 H         1 UNK         0.1312 
     82 H82        31.4688    2.0137   -1.9956 H         1 UNK         0.1406 
     83 H83        29.0815   -1.1334   -0.3343 H         1 UNK         0.1631 
     84 H84        30.3600    2.3602    0.1189 H         1 UNK         0.0717 
     85 H85        29.8435    0.9576    1.0156 H         1 UNK         0.0717 
     86 H86        27.5035    3.9947   -1.2787 H         1 UNK         0.0934 
     87 H87        29.1266    3.4791   -1.6434 H         1 UNK         0.0934 
     88 H88        28.2918    1.7301   -3.1783 H         1 UNK         0.0739 
     89 H89        26.0553    1.6461   -1.8120 H         1 UNK         0.3093 
     90 H90        24.5790   -0.0419   -2.4720 H         1 UNK         0.0818 
     91 H91        23.4525    2.1340   -1.9385 H         1 UNK         0.0819 
     92 H92        22.7858    2.2096   -3.5631 H         1 UNK         0.0819 
     93 H93        22.2699    0.9434   -2.4489 H         1 UNK         0.0819 
     94 H94        22.9198    0.1150   -4.8388 H         1 UNK         0.3041 
     95 H95        22.8103   -2.2254   -5.9515 H         1 UNK         0.0784 
     96 H96        23.0502    0.0287   -7.0470 H         1 UNK         0.0793 
     97 H97        24.6735   -0.3874   -7.5779 H         1 UNK         0.0793 
     98 H98        23.2795   -1.2342   -8.2374 H         1 UNK         0.0793 
     99 H99        25.5665   -2.9671   -6.2194 H         1 UNK         0.3024 
    100 H100       24.7676   -6.0002   -7.7282 H         1 UNK         0.1171 
    101 H101       26.4450   -3.9435   -9.2570 H         1 UNK         0.0786 
    102 H102       26.6686   -5.6913   -9.3476 H         1 UNK         0.0786 
    103 H103       25.1733   -4.9593   -9.9079 H         1 UNK         0.0786 
    104 H104       26.3160   -6.0874   -6.1702 H         1 UNK         0.2977 
    105 H105       25.8370    4.2365   -3.6845 H         1 UNK         0.3127 
    106 H106       27.5212    6.0603   -5.1477 H         1 UNK         0.0770 
    107 H107       25.3493    7.1732   -5.6729 H         1 UNK         0.0814 
    108 H108       25.4689    6.8052   -3.9611 H         1 UNK         0.0814 
    109 H109       24.4675    5.8030   -5.0140 H         1 UNK         0.0814 
    110 H110       25.8082    3.1356   -6.0850 H         1 UNK         0.2983 
    111 H111       26.3024    3.6986   -8.9921 H         1 UNK         0.0947 
    112 H112       24.1669    2.4669   -9.4142 H         1 UNK         0.0806 
    113 H113       23.8781    3.9023   -8.4462 H         1 UNK         0.0806 
    114 H114       23.8981    2.3142   -7.6821 H         1 UNK         0.0806 
    115 H115       27.2252    1.8286   -6.4191 H         1 UNK         0.3000 
    116 H116       27.1384   -0.7996   -7.2188 H         1 UNK         0.0850 
    117 H117       28.9860    0.7765   -5.3924 H         1 UNK         0.0810 
    118 H118       29.2410   -0.9430   -5.6232 H         1 UNK         0.0810 
    119 H119       27.7207   -0.3616   -4.9635 H         1 UNK         0.0810 
    120 H120       28.4019   -2.2451   -8.2588 H         1 UNK         0.3040 
    121 H121       29.8722   -1.2046  -10.5427 H         1 UNK         0.0766 
    122 H122       28.2770   -3.0741  -10.7939 H         1 UNK         0.0812 
    123 H123       29.2034   -4.0692   -9.6706 H         1 UNK         0.0812 
    124 H124       29.8881   -3.6182  -11.2272 H         1 UNK         0.0812 
    125 H125       30.7587   -2.7665   -7.5136 H         1 UNK         0.3205 
    126 H126       33.3654   -3.6536   -8.3406 H         1 UNK         0.0754 
    127 H127       32.0311   -4.7376   -6.5082 H         1 UNK         0.0769 
    128 H128       32.2559   -3.2977   -5.5097 H         1 UNK         0.0769 
    129 H129       33.6356   -4.2743   -5.9732 H         1 UNK         0.0769 
    130 H130       32.2956   -0.4984   -7.5066 H         1 UNK         0.2981 
    131 H131       34.6516    0.3980   -6.1342 H         1 UNK         0.0541 
    132 H132       34.2736   -0.2031   -9.5252 H         1 UNK         0.3459 
    133 H133       35.6157    0.7958  -10.0300 H         1 UNK         0.3459 
    134 H134       32.6238    2.2151   -7.4907 H         1 UNK         0.0612 
    135 H135       33.6738    2.5982   -6.1515 H         1 UNK         0.0612 
    136 H136       33.2716    1.3382   -3.5978 H         1 UNK         0.0624 
    137 H137       33.2020   -0.2246   -4.3830 H         1 UNK         0.0624 
@<TRIPOS>BOND
     1    1    2 1    
     2    1   72 1    
     3    1   73 1    
     4    1   74 1    
     5    2    3 2    
     6    2    4 am   BACKBONE|DICT|INTERRES
     7    4    5 1    
     8    4   75 1    
     9    5    6 1    
    10    5   35 1    
    11    5   76 1    
    12    6    7 1    
    13    6   77 1    
    14    6   78 1    
    15    7    8 1    
    16    8    9 1    
    17    8   79 1    
    18    8   80 1    
    19    9   10 ar   
    20    9   14 ar   
    21   10   11 ar   
    22   10   81 1    
    23   11   12 ar   
    24   11   71 1    
    25   12   13 ar   
    26   12   82 1    
    27   13   14 ar   
    28   13   15 1    
    29   14   83 1    
    30   15   16 1    
    31   15   84 1    
    32   15   85 1    
    33   16   17 1    
    34   17   18 1    
    35   17   86 1    
    36   17   87 1    
    37   18   19 1    
    38   18   37 1    
    39   18   88 1    
    40   19   20 am   BACKBONE|DICT|INTERRES
    41   19   89 1    
    42   20   21 2    
    43   20   22 1    
    44   22   23 1    
    45   22   24 1    
    46   22   90 1    
    47   23   91 1    
    48   23   92 1    
    49   23   93 1    
    50   24   25 am   BACKBONE|DICT|INTERRES
    51   24   94 1    
    52   25   26 2    
    53   25   27 1    
    54   27   28 1    
    55   27   29 1    
    56   27   95 1    
    57   28   96 1    
    58   28   97 1    
    59   28   98 1    
    60   29   30 am   BACKBONE|DICT|INTERRES
    61   29   99 1    
    62   30   31 2    
    63   30   32 1    
    64   32   33 1    
    65   32   34 1    
    66   32  100 1    
    67   33  101 1    
    68   33  102 1    
    69   33  103 1    
    70   34   35 am   BACKBONE|DICT|INTERRES
    71   34  104 1    
    72   35   36 2    
    73   37   38 2    
    74   37   39 am   BACKBONE|DICT|INTERRES
    75   39   40 1    
    76   39  105 1    
    77   40   41 1    
    78   40   42 1    
    79   40  106 1    
    80   41  107 1    
    81   41  108 1    
    82   41  109 1    
    83   42   43 2    
    84   42   44 am   BACKBONE|DICT|INTERRES
    85   44   45 1    
    86   44  110 1    
    87   45   46 1    
    88   45   47 1    
    89   45  111 1    
    90   46  112 1    
    91   46  113 1    
    92   46  114 1    
    93   47   48 2    
    94   47   49 am   BACKBONE|DICT|INTERRES
    95   49   50 1    
    96   49  115 1    
    97   50   51 1    
    98   50   52 1    
    99   50  116 1    
   100   51  117 1    
   101   51  118 1    
   102   51  119 1    
   103   52   53 2    
   104   52   54 am   BACKBONE|DICT|INTERRES
   105   54   55 1    
   106   54  120 1    
   107   55   56 1    
   108   55   57 1    
   109   55  121 1    
   110   56  122 1    
   111   56  123 1    
   112   56  124 1    
   113   57   58 2    
   114   57   59 am   BACKBONE|DICT|INTERRES
   115   59   60 1    
   116   59  125 1    
   117   60   61 1    
   118   60   62 1    
   119   60  126 1    
   120   61  127 1    
   121   61  128 1    
   122   61  129 1    
   123   62   63 2    
   124   62   64 am   BACKBONE|DICT|INTERRES
   125   64   65 1    
   126   64  130 1    
   127   65   66 1    
   128   65   69 1    
   129   65  131 1    
   130   66   67 am   BACKBONE|DICT|INTERRES
   131   66   68 2    
   132   67  132 1    
   133   67  133 1    
   134   69   70 1    
   135   69  134 1    
   136   69  135 1    
   137   70   71 1    
   138   71  136 1    
   139   71  137 1    
@<TRIPOS>SUBSTRUCTURE
     1 UNK         1 GROUP             0       ****    0 ROOT    
