@<TRIPOS>MOLECULE
3R137
137   139    1
SMALL
USER_CHARGES


@<TRIPOS>ATOM
      1 CA         23.2023   -2.5628   -0.9579 C.3       0 UNK        -0.2020 
      2 C          24.5181   -2.0094   -1.4813 C.2       0 UNK         0.4855 
      3 O          24.6585   -1.8231   -2.6892 O.2       0 UNK        -0.5197 
      4 N          25.4679   -1.7187   -0.5808 N.am      1 UNK        -0.4892 
      5 CA         26.8450   -1.2417   -0.8078 C.3       1 UNK         0.0835 
      6 C6         27.7223   -2.2675   -1.5779 C.3       12 UNK        -0.0855 
      7 S7         29.4841   -2.1074   -1.1234 S.3       12 UNK        -0.2931 
      8 C8         30.1062   -3.8064   -1.3180 C.3       12 UNK         0.0378 
      9 C9         30.4722   -4.1214   -2.7618 C.ar      12 UNK        -0.0802 
     10 C10        31.5636   -3.4836   -3.3589 C.ar      12 UNK        -0.0944 
     11 C11        31.9404   -3.7863   -4.6713 C.ar      12 UNK        -0.0787 
     12 C12        31.2299   -4.7639   -5.3764 C.ar      12 UNK        -0.0862 
     13 C13        30.1418   -5.4189   -4.7874 C.ar      12 UNK        -0.0733 
     14 C14        29.7588   -5.0817   -3.4846 C.ar      12 UNK        -0.0832 
     15 C15        29.4097   -6.5301   -5.5322 C.3       12 UNK         0.0240 
     16 S16        28.6858   -5.9803   -7.1088 S.3       12 UNK        -0.2522 
     17 C17        27.4637   -4.7540   -6.5334 C.3       12 UNK        -0.0967 
     18 CA         26.7571   -4.0052   -7.7024 C.3       5 UNK         0.0660 
     19 N          25.4168   -3.5435   -7.3292 N.am      5 UNK        -0.4015 
     20 C          25.1199   -2.6705   -6.3568 C.2       4 UNK         0.4946 
     21 O          25.9567   -2.1206   -5.6357 O.2       4 UNK        -0.5353 
     22 CA         23.6236   -2.4069   -6.1471 C.3       4 UNK         0.0277 
     23 CB         22.9436   -3.6179   -5.4823 C.3       4 UNK        -0.1981 
     24 N          23.4338   -1.2434   -5.2869 N.am      4 UNK        -0.4209 
     25 C          22.5928   -0.2313   -5.5288 C.2       3 UNK         0.4942 
     26 O          21.8813   -0.1554   -6.5319 O.2       3 UNK        -0.5208 
     27 CA         22.4966    0.8786   -4.4681 C.3       3 UNK         0.0250 
     28 CB         21.3258    0.5992   -3.5113 C.3       3 UNK        -0.1990 
     29 N          23.7214    1.0479   -3.6852 N.am      3 UNK        -0.4232 
     30 C          24.8297    1.6589   -4.1275 C.2       2 UNK         0.4993 
     31 O          24.9393    2.1518   -5.2483 O.2       2 UNK        -0.5286 
     32 CA         26.0019    1.7481   -3.1430 C.3       2 UNK         0.0209 
     33 CB         25.8102    2.9786   -2.2300 C.3       2 UNK        -0.1931 
     34 N          26.1007    0.4996   -2.3815 N.am      2 UNK        -0.4546 
     35 C          26.9562    0.1835   -1.4055 C.2       1 UNK         0.5154 
     36 O          27.8021    0.9602   -0.9603 O.2       1 UNK        -0.5181 
     37 C          27.6100   -2.8728   -8.3238 C.2       5 UNK         0.5014 
     38 O          27.0822   -1.8274   -8.7135 O.2       5 UNK        -0.5248 
     39 N          28.9265   -3.1028   -8.4107 N.am      6 UNK        -0.4434 
     40 CA         29.9256   -2.1531   -8.9060 C.3       6 UNK         0.0363 
     41 CB         31.2727   -2.8722   -9.0685 C.3       6 UNK        -0.1936 
     42 C          30.0791   -0.9083   -8.0158 C.2       6 UNK         0.5081 
     43 O          30.5836    0.1083   -8.4910 O.2       6 UNK        -0.5248 
     44 N          29.6079   -0.9776   -6.7622 N.am      7 UNK        -0.4718 
     45 CA         29.5536    0.1335   -5.8082 C.3       7 UNK         0.0273 
     46 CB         29.0271   -0.3827   -4.4643 C.3       7 UNK        -0.1935 
     47 C          28.7197    1.3309   -6.2972 C.2       7 UNK         0.5018 
     48 O          29.0084    2.4593   -5.8992 O.2       7 UNK        -0.5186 
     49 N          27.7680    1.0889   -7.2117 N.am      8 UNK        -0.4240 
     50 CA         27.0331    2.1233   -7.9474 C.3       8 UNK         0.0235 
     51 CB         25.9043    1.4604   -8.7524 C.3       8 UNK        -0.2000 
     52 C          27.9254    2.9870   -8.8639 C.2       8 UNK         0.4941 
     53 O          27.5467    4.1168   -9.1739 O.2       8 UNK        -0.5273 
     54 N          29.0961    2.4624   -9.2525 N.am      9 UNK        -0.4262 
     55 CA         30.1576    3.1604   -9.9792 C.3       9 UNK         0.0264 
     56 CB         30.4529    2.3885  -11.2787 C.3       9 UNK        -0.1955 
     57 C          31.4172    3.3038   -9.0998 C.2       9 UNK         0.5031 
     58 O          32.5236    3.4001   -9.6355 O.2       9 UNK        -0.5390 
     59 N          31.2404    3.2812   -7.7671 N.am      10 UNK        -0.4204 
     60 CA         32.2705    3.3740   -6.7227 C.3       10 UNK         0.0237 
     61 CB         32.8797    4.7922   -6.6951 C.3       10 UNK        -0.1985 
     62 C          33.3478    2.2695   -6.7877 C.2       10 UNK         0.4970 
     63 O          34.4630    2.4859   -6.3101 O.2       10 UNK        -0.4914 
     64 N          33.0027    1.1155   -7.3762 N.am      11 UNK        -0.4285 
     65 CA         33.8848   -0.0357   -7.6296 C.3       11 UNK         0.1007 
     66 C          35.0310    0.2528   -8.6469 C.2       11 UNK         0.5703 
     67 N          34.9374    1.2933   -9.4692 N.am      11 UNK        -0.7361 
     68 O          36.0044   -0.4936   -8.7217 O.2       11 UNK        -0.4986 
     69 C69        34.3643   -0.7418   -6.3273 C.3       12 UNK        -0.0947 
     70 S70        32.9653   -1.2749   -5.2823 S.3       12 UNK        -0.2240 
     71 C71        33.1367   -3.0878   -5.3096 C.3       12 UNK         0.0194 
     72 H72        23.2380   -2.7585    0.1136 H         1 UNK         0.0906 
     73 H73        22.3948   -1.8570   -1.1487 H         1 UNK         0.0906 
     74 H74        22.9636   -3.4975   -1.4646 H         1 UNK         0.0906 
     75 H75        25.2437   -1.8569    0.3957 H         1 UNK         0.3140 
     76 H76        27.2514   -1.1599    0.2022 H         1 UNK         0.1085 
     77 H77        27.4020   -3.2805   -1.3305 H         1 UNK         0.0836 
     78 H78        27.6003   -2.1773   -2.6585 H         1 UNK         0.0836 
     79 H79        29.3788   -4.5189   -0.9262 H         1 UNK         0.0731 
     80 H80        30.9988   -3.9194   -0.7011 H         1 UNK         0.0731 
     81 H81        32.1202   -2.7441   -2.7993 H         1 UNK         0.1312 
     82 H82        31.5302   -5.0305   -6.3804 H         1 UNK         0.1406 
     83 H83        28.9237   -5.5890   -3.0207 H         1 UNK         0.1631 
     84 H84        28.6196   -6.9613   -4.9153 H         1 UNK         0.0717 
     85 H85        30.1136   -7.3383   -5.7346 H         1 UNK         0.0717 
     86 H86        26.7263   -5.3010   -5.9432 H         1 UNK         0.0934 
     87 H87        27.9290   -4.0503   -5.8398 H         1 UNK         0.0934 
     88 H88        26.5872   -4.7203   -8.5089 H         1 UNK         0.0739 
     89 H89        24.6623   -3.9140   -7.8889 H         1 UNK         0.3093 
     90 H90        23.1763   -2.2332   -7.1281 H         1 UNK         0.0818 
     91 H91        23.3848   -3.8387   -4.5090 H         1 UNK         0.0819 
     92 H92        21.8789   -3.4389   -5.3317 H         1 UNK         0.0819 
     93 H93        23.0355   -4.5152   -6.0950 H         1 UNK         0.0819 
     94 H94        24.0131   -1.2371   -4.4512 H         1 UNK         0.3041 
     95 H95        22.2918    1.8154   -4.9914 H         1 UNK         0.0784 
     96 H96        20.3877    0.5065   -4.0606 H         1 UNK         0.0793 
     97 H97        21.4702   -0.3286   -2.9566 H         1 UNK         0.0793 
     98 H98        21.1985    1.4074   -2.7909 H         1 UNK         0.0793 
     99 H99        23.7078    0.6944   -2.7400 H         1 UNK         0.3024 
    100 H100       26.9187    1.8715   -3.7229 H         1 UNK         0.1171 
    101 H101       26.7030    3.1929   -1.6438 H         1 UNK         0.0786 
    102 H102       25.6031    3.8735   -2.8190 H         1 UNK         0.0786 
    103 H103       24.9781    2.8433   -1.5382 H         1 UNK         0.0786 
    104 H104       25.5027   -0.2650   -2.6952 H         1 UNK         0.2977 
    105 H105       29.2669   -3.9968   -8.0776 H         1 UNK         0.3127 
    106 H106       29.5989   -1.8092   -9.8896 H         1 UNK         0.0770 
    107 H107       31.6788   -3.1874   -8.1079 H         1 UNK         0.0814 
    108 H108       32.0075   -2.2176   -9.5382 H         1 UNK         0.0814 
    109 H109       31.1805   -3.7544   -9.7021 H         1 UNK         0.0814 
    110 H110       29.2107   -1.8525   -6.4538 H         1 UNK         0.2983 
    111 H111       30.5745    0.4902   -5.6611 H         1 UNK         0.0947 
    112 H112       29.0603    0.4003   -3.7057 H         1 UNK         0.0806 
    113 H113       29.6299   -1.2130   -4.0954 H         1 UNK         0.0806 
    114 H114       27.9939   -0.7222   -4.5422 H         1 UNK         0.0806 
    115 H115       27.5936    0.1286   -7.4838 H         1 UNK         0.3000 
    116 H116       26.5840    2.7956   -7.2142 H         1 UNK         0.0850 
    117 H117       25.3118    2.2070   -9.2827 H         1 UNK         0.0810 
    118 H118       25.2245    0.9119   -8.0992 H         1 UNK         0.0810 
    119 H119       26.2940    0.7624   -9.4944 H         1 UNK         0.0810 
    120 H120       29.3448    1.5279   -8.9386 H         1 UNK         0.3040 
    121 H121       29.8403    4.1709  -10.2438 H         1 UNK         0.0766 
    122 H122       29.5561    2.2830  -11.8891 H         1 UNK         0.0812 
    123 H123       30.8380    1.3889  -11.0721 H         1 UNK         0.0812 
    124 H124       31.1962    2.9073  -11.8854 H         1 UNK         0.0812 
    125 H125       30.2950    3.1719   -7.4158 H         1 UNK         0.3205 
    126 H126       31.7506    3.2218   -5.7757 H         1 UNK         0.0754 
    127 H127       33.5373    4.9224   -5.8347 H         1 UNK         0.0769 
    128 H128       32.1046    5.5553   -6.6245 H         1 UNK         0.0769 
    129 H129       33.4699    4.9949   -7.5895 H         1 UNK         0.0769 
    130 H130       32.0675    1.0156   -7.7601 H         1 UNK         0.2981 
    131 H131       33.2565   -0.7542   -8.1533 H         1 UNK         0.0541 
    132 H132       35.6768    1.4653  -10.1314 H         1 UNK         0.3459 
    133 H133       34.1398    1.9162   -9.4301 H         1 UNK         0.3459 
    134 H134       35.0024   -0.0800   -5.7405 H         1 UNK         0.0612 
    135 H135       34.9752   -1.6140   -6.5656 H         1 UNK         0.0612 
    136 H136       34.0433   -3.3686   -4.7722 H         1 UNK         0.0624 
    137 H137       33.2699   -3.4169   -6.3407 H         1 UNK         0.0624 
@<TRIPOS>BOND
     1    1    2 1    
     2    1   72 1    
     3    1   73 1    
     4    1   74 1    
     5    2    3 2    
     6    2    4 am   BACKBONE|DICT|INTERRES
     7    4    5 1    
     8    4   75 1    
     9    5    6 1    
    10    5   35 1    
    11    5   76 1    
    12    6    7 1    
    13    6   77 1    
    14    6   78 1    
    15    7    8 1    
    16    8    9 1    
    17    8   79 1    
    18    8   80 1    
    19    9   10 ar   
    20    9   14 ar   
    21   10   11 ar   
    22   10   81 1    
    23   11   12 ar   
    24   11   71 1    
    25   12   13 ar   
    26   12   82 1    
    27   13   14 ar   
    28   13   15 1    
    29   14   83 1    
    30   15   16 1    
    31   15   84 1    
    32   15   85 1    
    33   16   17 1    
    34   17   18 1    
    35   17   86 1    
    36   17   87 1    
    37   18   19 1    
    38   18   37 1    
    39   18   88 1    
    40   19   20 am   BACKBONE|DICT|INTERRES
    41   19   89 1    
    42   20   21 2    
    43   20   22 1    
    44   22   23 1    
    45   22   24 1    
    46   22   90 1    
    47   23   91 1    
    48   23   92 1    
    49   23   93 1    
    50   24   25 am   BACKBONE|DICT|INTERRES
    51   24   94 1    
    52   25   26 2    
    53   25   27 1    
    54   27   28 1    
    55   27   29 1    
    56   27   95 1    
    57   28   96 1    
    58   28   97 1    
    59   28   98 1    
    60   29   30 am   BACKBONE|DICT|INTERRES
    61   29   99 1    
    62   30   31 2    
    63   30   32 1    
    64   32   33 1    
    65   32   34 1    
    66   32  100 1    
    67   33  101 1    
    68   33  102 1    
    69   33  103 1    
    70   34   35 am   BACKBONE|DICT|INTERRES
    71   34  104 1    
    72   35   36 2    
    73   37   38 2    
    74   37   39 am   BACKBONE|DICT|INTERRES
    75   39   40 1    
    76   39  105 1    
    77   40   41 1    
    78   40   42 1    
    79   40  106 1    
    80   41  107 1    
    81   41  108 1    
    82   41  109 1    
    83   42   43 2    
    84   42   44 am   BACKBONE|DICT|INTERRES
    85   44   45 1    
    86   44  110 1    
    87   45   46 1    
    88   45   47 1    
    89   45  111 1    
    90   46  112 1    
    91   46  113 1    
    92   46  114 1    
    93   47   48 2    
    94   47   49 am   BACKBONE|DICT|INTERRES
    95   49   50 1    
    96   49  115 1    
    97   50   51 1    
    98   50   52 1    
    99   50  116 1    
   100   51  117 1    
   101   51  118 1    
   102   51  119 1    
   103   52   53 2    
   104   52   54 am   BACKBONE|DICT|INTERRES
   105   54   55 1    
   106   54  120 1    
   107   55   56 1    
   108   55   57 1    
   109   55  121 1    
   110   56  122 1    
   111   56  123 1    
   112   56  124 1    
   113   57   58 2    
   114   57   59 am   BACKBONE|DICT|INTERRES
   115   59   60 1    
   116   59  125 1    
   117   60   61 1    
   118   60   62 1    
   119   60  126 1    
   120   61  127 1    
   121   61  128 1    
   122   61  129 1    
   123   62   63 2    
   124   62   64 am   BACKBONE|DICT|INTERRES
   125   64   65 1    
   126   64  130 1    
   127   65   66 1    
   128   65   69 1    
   129   65  131 1    
   130   66   67 am   BACKBONE|DICT|INTERRES
   131   66   68 2    
   132   67  132 1    
   133   67  133 1    
   134   69   70 1    
   135   69  134 1    
   136   69  135 1    
   137   70   71 1    
   138   71  136 1    
   139   71  137 1    
@<TRIPOS>SUBSTRUCTURE
     1 UNK         1 GROUP             0       ****    0 ROOT    
