@<TRIPOS>MOLECULE
3R137
137   139    1
SMALL
USER_CHARGES


@<TRIPOS>ATOM
      1 CA         27.0938   -4.5075    4.2913 C.3       0 UNK        -0.2020 
      2 C          27.1009   -3.4493    3.1977 C.2       0 UNK         0.4855 
      3 O          26.7173   -2.3067    3.4517 O.2       0 UNK        -0.5197 
      4 N          27.5412   -3.8199    1.9886 N.am      1 UNK        -0.4892 
      5 CA         27.5528   -2.9600    0.7995 C.3       1 UNK         0.0835 
      6 C6         28.7574   -3.2908   -0.1237 C.3       12 UNK        -0.0855 
      7 S7         29.3451   -1.8296   -1.0523 S.3       12 UNK        -0.2931 
      8 C8         30.8947   -2.4632   -1.7672 C.3       12 UNK         0.0378 
      9 C9         30.7643   -2.7804   -3.2517 C.ar      12 UNK        -0.0802 
     10 C10        31.5350   -2.0787   -4.1833 C.ar      12 UNK        -0.0944 
     11 C11        31.4870   -2.4012   -5.5461 C.ar      12 UNK        -0.0787 
     12 C12        30.6319   -3.4270   -5.9653 C.ar      12 UNK        -0.0862 
     13 C13        29.8384   -4.1261   -5.0497 C.ar      12 UNK        -0.0733 
     14 C14        29.9162   -3.8005   -3.6927 C.ar      12 UNK        -0.0832 
     15 C15        28.9415   -5.2739   -5.5062 C.3       12 UNK         0.0240 
     16 S16        27.8379   -4.8475   -6.8953 S.3       12 UNK        -0.2522 
     17 C17        26.7120   -3.6289   -6.1367 C.3       12 UNK        -0.0967 
     18 CA         26.4878   -2.3962   -7.0475 C.3       5 UNK         0.0660 
     19 N          25.2764   -1.6555   -6.6850 N.am      5 UNK        -0.4015 
     20 C          24.7135   -0.6980   -7.4375 C.2       4 UNK         0.4946 
     21 O          25.1306   -0.3565   -8.5430 O.2       4 UNK        -0.5353 
     22 CA         23.5000    0.0327   -6.8406 C.3       4 UNK         0.0277 
     23 CB         22.2170   -0.7908   -7.0368 C.3       4 UNK        -0.1981 
     24 N          23.6743    0.3498   -5.4220 N.am      4 UNK        -0.4209 
     25 C          24.6011    1.1936   -4.9454 C.2       3 UNK         0.4942 
     26 O          25.3787    1.8319   -5.6529 O.2       3 UNK        -0.5208 
     27 CA         24.7101    1.3096   -3.4170 C.3       3 UNK         0.0250 
     28 CB         23.7187    2.3556   -2.8826 C.3       3 UNK        -0.1990 
     29 N          24.5176    0.0385   -2.7089 N.am      3 UNK        -0.4232 
     30 C          25.2662   -1.0582   -2.8898 C.2       2 UNK         0.4993 
     31 O          26.1712   -1.1489   -3.7228 O.2       2 UNK        -0.5286 
     32 CA         24.9809   -2.2488   -1.9758 C.3       2 UNK         0.0209 
     33 CB         24.7191   -3.5370   -2.7789 C.3       2 UNK        -0.1931 
     34 N          26.1540   -2.4029   -1.1277 N.am      2 UNK        -0.4546 
     35 C          26.1956   -3.0135    0.0587 C.2       1 UNK         0.5154 
     36 O          25.2244   -3.5903    0.5572 O.2       1 UNK        -0.5181 
     37 C          27.7124   -1.4653   -7.0689 C.2       5 UNK         0.5014 
     38 O          28.4495   -1.4561   -8.0573 O.2       5 UNK        -0.5248 
     39 N          27.8666   -0.6658   -6.0020 N.am      6 UNK        -0.4434 
     40 CA         28.9202    0.3373   -5.8591 C.3       6 UNK         0.0363 
     41 CB         28.8240    1.0092   -4.4819 C.3       6 UNK        -0.1936 
     42 C          28.9175    1.3746   -6.9920 C.2       6 UNK         0.5081 
     43 O          29.9830    1.6757   -7.5270 O.2       6 UNK        -0.5248 
     44 N          27.7272    1.8609   -7.3698 N.am      7 UNK        -0.4718 
     45 CA         27.5245    2.7547   -8.5094 C.3       7 UNK         0.0273 
     46 CB         26.0921    3.3120   -8.4871 C.3       7 UNK        -0.1935 
     47 C          27.8282    2.0812   -9.8576 C.2       7 UNK         0.5018 
     48 O          28.5765    2.6513  -10.6518 O.2       7 UNK        -0.5186 
     49 N          27.2576    0.8891  -10.0931 N.am      8 UNK        -0.4240 
     50 CA         27.3878    0.1390  -11.3477 C.3       8 UNK         0.0235 
     51 CB         26.4543   -1.0820  -11.3320 C.3       8 UNK        -0.2000 
     52 C          28.8271   -0.2932  -11.6645 C.2       8 UNK         0.4941 
     53 O          29.2616   -0.1443  -12.8074 O.2       8 UNK        -0.5273 
     54 N          29.5421   -0.8043  -10.6540 N.am      9 UNK        -0.4262 
     55 CA         30.9407   -1.2278  -10.7701 C.3       9 UNK         0.0264 
     56 CB         31.1674   -2.4483   -9.8657 C.3       9 UNK        -0.1955 
     57 C          31.9507   -0.0932  -10.4982 C.2       9 UNK         0.5031 
     58 O          33.1541   -0.3360  -10.5986 O.2       9 UNK        -0.5390 
     59 N          31.4557    1.1176  -10.1982 N.am      10 UNK        -0.4204 
     60 CA         32.1923    2.3736  -10.0130 C.3       10 UNK         0.0237 
     61 CB         32.8056    2.8422  -11.3503 C.3       10 UNK        -0.1985 
     62 C          33.2140    2.3348   -8.8590 C.2       10 UNK         0.4970 
     63 O          34.3581    2.7612   -9.0321 O.2       10 UNK        -0.4914 
     64 N          32.7727    1.8474   -7.6951 N.am      11 UNK        -0.4285 
     65 CA         33.5094    1.9373   -6.4270 C.3       11 UNK         0.1007 
     66 C          33.3170    3.3275   -5.7625 C.2       11 UNK         0.5703 
     67 N          34.2793    3.7665   -4.9624 N.am      11 UNK        -0.7361 
     68 O          32.3004    3.9978   -5.9357 O.2       11 UNK        -0.4986 
     69 C69        33.1193    0.7944   -5.4549 C.3       12 UNK        -0.0947 
     70 S70        33.8088   -0.8078   -5.9875 S.3       12 UNK        -0.2240 
     71 C71        32.3266   -1.6735   -6.6008 C.3       12 UNK         0.0194 
     72 H72        27.7128   -4.1863    5.1286 H         1 UNK         0.0906 
     73 H73        26.0789   -4.6612    4.6570 H         1 UNK         0.0906 
     74 H74        27.4747   -5.4650    3.9364 H         1 UNK         0.0906 
     75 H75        27.8003   -4.7840    1.8329 H         1 UNK         0.3140 
     76 H76        27.6682   -1.9284    1.1409 H         1 UNK         0.1085 
     77 H77        29.5971   -3.6364    0.4821 H         1 UNK         0.0836 
     78 H78        28.5276   -4.1100   -0.8071 H         1 UNK         0.0836 
     79 H79        31.6712   -1.7143   -1.6041 H         1 UNK         0.0731 
     80 H80        31.2267   -3.3564   -1.2364 H         1 UNK         0.0731 
     81 H81        32.1862   -1.2922   -3.8324 H         1 UNK         0.1312 
     82 H82        30.5811   -3.6893   -7.0128 H         1 UNK         0.1406 
     83 H83        29.3268   -4.3516   -2.9744 H         1 UNK         0.1631 
     84 H84        28.3312   -5.6438   -4.6807 H         1 UNK         0.0717 
     85 H85        29.5768   -6.1057   -5.8126 H         1 UNK         0.0717 
     86 H86        25.7647   -4.1402   -5.9589 H         1 UNK         0.0934 
     87 H87        27.0820   -3.3301   -5.1540 H         1 UNK         0.0934 
     88 H88        26.3354   -2.7545   -8.0683 H         1 UNK         0.0739 
     89 H89        24.9107   -1.8180   -5.7589 H         1 UNK         0.3093 
     90 H90        23.3856    0.9751   -7.3810 H         1 UNK         0.0818 
     91 H91        21.3381   -0.2423   -6.6976 H         1 UNK         0.0819 
     92 H92        22.0629   -1.0243   -8.0914 H         1 UNK         0.0819 
     93 H93        22.2525   -1.7371   -6.4956 H         1 UNK         0.0819 
     94 H94        23.0714   -0.1227   -4.7645 H         1 UNK         0.3041 
     95 H95        25.7206    1.6554   -3.1904 H         1 UNK         0.0784 
     96 H96        23.8565    3.3148   -3.3842 H         1 UNK         0.0793 
     97 H97        22.6831    2.0515   -3.0400 H         1 UNK         0.0793 
     98 H98        23.8603    2.5285   -1.8155 H         1 UNK         0.0793 
     99 H99        23.8028    0.0286   -1.9951 H         1 UNK         0.3024 
    100 H100       24.1082   -2.0320   -1.3555 H         1 UNK         0.1171 
    101 H101       23.9072   -3.3976   -3.4937 H         1 UNK         0.0786 
    102 H102       24.4340   -4.3594   -2.1228 H         1 UNK         0.0786 
    103 H103       25.6014   -3.8513   -3.3359 H         1 UNK         0.0786 
    104 H104       26.9981   -1.9615   -1.4777 H         1 UNK         0.2977 
    105 H105       27.2213   -0.7648   -5.2202 H         1 UNK         0.3127 
    106 H106       29.8695   -0.1927   -5.9058 H         1 UNK         0.0770 
    107 H107       27.8817    1.5430   -4.3596 H         1 UNK         0.0814 
    108 H108       29.6305    1.7305   -4.3440 H         1 UNK         0.0814 
    109 H109       28.9019    0.2754   -3.6788 H         1 UNK         0.0814 
    110 H110       26.8997    1.6049   -6.8369 H         1 UNK         0.2983 
    111 H111       28.2148    3.5940   -8.3988 H         1 UNK         0.0947 
    112 H112       25.9195    3.9837   -9.3290 H         1 UNK         0.0806 
    113 H113       25.9038    3.8795   -7.5755 H         1 UNK         0.0806 
    114 H114       25.3474    2.5171   -8.5429 H         1 UNK         0.0806 
    115 H115       26.6386    0.4893   -9.3911 H         1 UNK         0.3000 
    116 H116       27.0626    0.7994  -12.1544 H         1 UNK         0.0850 
    117 H117       26.5432   -1.6570  -12.2547 H         1 UNK         0.0810 
    118 H118       25.4109   -0.7808  -11.2388 H         1 UNK         0.0810 
    119 H119       26.6840   -1.7534  -10.5034 H         1 UNK         0.0810 
    120 H120       29.1020   -0.9220   -9.7412 H         1 UNK         0.3040 
    121 H121       31.1316   -1.5545  -11.7946 H         1 UNK         0.0766 
    122 H122       32.2194   -2.7341   -9.8281 H         1 UNK         0.0812 
    123 H123       30.6107   -3.3118  -10.2296 H         1 UNK         0.0812 
    124 H124       30.8338   -2.2532   -8.8503 H         1 UNK         0.0812 
    125 H125       30.4508    1.1988  -10.1119 H         1 UNK         0.3205 
    126 H126       31.4450    3.1138   -9.7224 H         1 UNK         0.0754 
    127 H127       33.2518    3.8325  -11.2510 H         1 UNK         0.0769 
    128 H128       32.0477    2.9068  -12.1312 H         1 UNK         0.0769 
    129 H129       33.5877    2.1656  -11.6964 H         1 UNK         0.0769 
    130 H130       31.7805    1.6283   -7.6204 H         1 UNK         0.2981 
    131 H131       34.5751    1.8386   -6.6443 H         1 UNK         0.0541 
    132 H132       34.1702    4.6615   -4.5115 H         1 UNK         0.3459 
    133 H133       35.1143    3.2242   -4.8034 H         1 UNK         0.3459 
    134 H134       32.0361    0.7299   -5.3436 H         1 UNK         0.0612 
    135 H135       33.5144    0.9840   -4.4551 H         1 UNK         0.0612 
    136 H136       31.7007   -0.9654   -7.1444 H         1 UNK         0.0624 
    137 H137       32.6767   -2.4043   -7.3305 H         1 UNK         0.0624 
@<TRIPOS>BOND
     1    1    2 1    
     2    1   72 1    
     3    1   73 1    
     4    1   74 1    
     5    2    3 2    
     6    2    4 am   BACKBONE|DICT|INTERRES
     7    4    5 1    
     8    4   75 1    
     9    5    6 1    
    10    5   35 1    
    11    5   76 1    
    12    6    7 1    
    13    6   77 1    
    14    6   78 1    
    15    7    8 1    
    16    8    9 1    
    17    8   79 1    
    18    8   80 1    
    19    9   10 ar   
    20    9   14 ar   
    21   10   11 ar   
    22   10   81 1    
    23   11   12 ar   
    24   11   71 1    
    25   12   13 ar   
    26   12   82 1    
    27   13   14 ar   
    28   13   15 1    
    29   14   83 1    
    30   15   16 1    
    31   15   84 1    
    32   15   85 1    
    33   16   17 1    
    34   17   18 1    
    35   17   86 1    
    36   17   87 1    
    37   18   19 1    
    38   18   37 1    
    39   18   88 1    
    40   19   20 am   BACKBONE|DICT|INTERRES
    41   19   89 1    
    42   20   21 2    
    43   20   22 1    
    44   22   23 1    
    45   22   24 1    
    46   22   90 1    
    47   23   91 1    
    48   23   92 1    
    49   23   93 1    
    50   24   25 am   BACKBONE|DICT|INTERRES
    51   24   94 1    
    52   25   26 2    
    53   25   27 1    
    54   27   28 1    
    55   27   29 1    
    56   27   95 1    
    57   28   96 1    
    58   28   97 1    
    59   28   98 1    
    60   29   30 am   BACKBONE|DICT|INTERRES
    61   29   99 1    
    62   30   31 2    
    63   30   32 1    
    64   32   33 1    
    65   32   34 1    
    66   32  100 1    
    67   33  101 1    
    68   33  102 1    
    69   33  103 1    
    70   34   35 am   BACKBONE|DICT|INTERRES
    71   34  104 1    
    72   35   36 2    
    73   37   38 2    
    74   37   39 am   BACKBONE|DICT|INTERRES
    75   39   40 1    
    76   39  105 1    
    77   40   41 1    
    78   40   42 1    
    79   40  106 1    
    80   41  107 1    
    81   41  108 1    
    82   41  109 1    
    83   42   43 2    
    84   42   44 am   BACKBONE|DICT|INTERRES
    85   44   45 1    
    86   44  110 1    
    87   45   46 1    
    88   45   47 1    
    89   45  111 1    
    90   46  112 1    
    91   46  113 1    
    92   46  114 1    
    93   47   48 2    
    94   47   49 am   BACKBONE|DICT|INTERRES
    95   49   50 1    
    96   49  115 1    
    97   50   51 1    
    98   50   52 1    
    99   50  116 1    
   100   51  117 1    
   101   51  118 1    
   102   51  119 1    
   103   52   53 2    
   104   52   54 am   BACKBONE|DICT|INTERRES
   105   54   55 1    
   106   54  120 1    
   107   55   56 1    
   108   55   57 1    
   109   55  121 1    
   110   56  122 1    
   111   56  123 1    
   112   56  124 1    
   113   57   58 2    
   114   57   59 am   BACKBONE|DICT|INTERRES
   115   59   60 1    
   116   59  125 1    
   117   60   61 1    
   118   60   62 1    
   119   60  126 1    
   120   61  127 1    
   121   61  128 1    
   122   61  129 1    
   123   62   63 2    
   124   62   64 am   BACKBONE|DICT|INTERRES
   125   64   65 1    
   126   64  130 1    
   127   65   66 1    
   128   65   69 1    
   129   65  131 1    
   130   66   67 am   BACKBONE|DICT|INTERRES
   131   66   68 2    
   132   67  132 1    
   133   67  133 1    
   134   69   70 1    
   135   69  134 1    
   136   69  135 1    
   137   70   71 1    
   138   71  136 1    
   139   71  137 1    
@<TRIPOS>SUBSTRUCTURE
     1 UNK         1 GROUP             0       ****    0 ROOT    
