@<TRIPOS>MOLECULE
3R137
137   139    1
SMALL
USER_CHARGES


@<TRIPOS>ATOM
      1 CA         28.6084   -4.5766    1.7957 C.3       0 UNK        -0.2020 
      2 C          28.3474   -3.1545    1.3226 C.2       0 UNK         0.4855 
      3 O          27.6474   -2.4031    2.0015 O.2       0 UNK        -0.5197 
      4 N          28.9111   -2.7814    0.1657 N.am      1 UNK        -0.4892 
      5 CA         28.7747   -1.4575   -0.4575 C.3       1 UNK         0.0835 
      6 C6         29.7511   -1.2586   -1.6455 C.3       12 UNK        -0.0855 
      7 S7         31.5112   -1.4830   -1.2030 S.3       12 UNK        -0.2931 
      8 C8         31.8290   -3.2607   -1.4882 C.3       12 UNK         0.0378 
      9 C9         31.5820   -3.6971   -2.9264 C.ar      12 UNK        -0.0802 
     10 C10        32.5871   -3.5583   -3.8877 C.ar      12 UNK        -0.0944 
     11 C11        32.3710   -3.9734   -5.2047 C.ar      12 UNK        -0.0787 
     12 C12        31.1403   -4.5365   -5.5565 C.ar      12 UNK        -0.0862 
     13 C13        30.1193   -4.6659   -4.6089 C.ar      12 UNK        -0.0733 
     14 C14        30.3565   -4.2639   -3.2918 C.ar      12 UNK        -0.0832 
     15 C15        28.7544   -5.2298   -4.9949 C.3       12 UNK         0.0240 
     16 S16        28.0035   -4.4083   -6.4428 S.3       12 UNK        -0.2522 
     17 C17        28.2371   -2.6427   -6.0536 C.3       12 UNK        -0.0967 
     18 CA         27.4663   -1.7373   -7.0413 C.3       5 UNK         0.0660 
     19 N          26.0145   -1.8104   -6.8591 N.am      5 UNK        -0.4015 
     20 C          25.1139   -1.3034   -7.7126 C.2       4 UNK         0.4946 
     21 O          25.4058   -0.7366   -8.7648 O.2       4 UNK        -0.5353 
     22 CA         23.6379   -1.3995   -7.2953 C.3       4 UNK         0.0277 
     23 CB         23.1086   -2.8322   -7.4709 C.3       4 UNK        -0.1981 
     24 N          23.4184   -0.9515   -5.9185 N.am      4 UNK        -0.4209 
     25 C          23.6400    0.2984   -5.4857 C.2       3 UNK         0.4942 
     26 O          24.0028    1.2223   -6.2121 O.2       3 UNK        -0.5208 
     27 CA         23.4642    0.5573   -3.9807 C.3       3 UNK         0.0250 
     28 CB         22.0047    0.9231   -3.6667 C.3       3 UNK        -0.1990 
     29 N          23.8885   -0.5517   -3.1187 N.am      3 UNK        -0.4232 
     30 C          25.1091   -1.1062   -3.1045 C.2       2 UNK         0.4993 
     31 O          26.0106   -0.8241   -3.8988 O.2       2 UNK        -0.5286 
     32 CA         25.3391   -2.2033   -2.0523 C.3       2 UNK         0.0209 
     33 CB         25.0353   -3.5832   -2.6597 C.3       2 UNK        -0.1931 
     34 N          26.7054   -2.2130   -1.5245 N.am      2 UNK        -0.4546 
     35 C          27.3259   -1.1904   -0.9148 C.2       1 UNK         0.5154 
     36 O          26.8046   -0.0974   -0.6870 O.2       1 UNK        -0.5181 
     37 C          27.9714   -0.2881   -6.9555 C.2       5 UNK         0.5014 
     38 O          28.7837    0.1131   -7.7912 O.2       5 UNK        -0.5248 
     39 N          27.4661    0.4775   -5.9774 N.am      6 UNK        -0.4434 
     40 CA         27.7780    1.8958   -5.7868 C.3       6 UNK         0.0363 
     41 CB         27.0928    2.4101   -4.5121 C.3       6 UNK        -0.1936 
     42 C          27.4028    2.7690   -6.9986 C.2       6 UNK         0.5081 
     43 O          28.1518    3.6860   -7.3330 O.2       6 UNK        -0.5248 
     44 N          26.2696    2.4605   -7.6424 N.am      7 UNK        -0.4718 
     45 CA         25.8149    3.1175   -8.8655 C.3       7 UNK         0.0273 
     46 CB         24.3040    2.8912   -9.0408 C.3       7 UNK        -0.1935 
     47 C          26.5831    2.6470  -10.1111 C.2       7 UNK         0.5018 
     48 O          27.0500    3.4888  -10.8796 O.2       7 UNK        -0.5186 
     49 N          26.6617    1.3241  -10.3176 N.am      8 UNK        -0.4240 
     50 CA         27.1714    0.7271  -11.5546 C.3       8 UNK         0.0235 
     51 CB         26.6436   -0.7103  -11.6949 C.3       8 UNK        -0.2000 
     52 C          28.7015    0.7418  -11.6750 C.2       8 UNK         0.4941 
     53 O          29.2085    1.0313  -12.7600 O.2       8 UNK        -0.5273 
     54 N          29.4032    0.3912  -10.5901 N.am      9 UNK        -0.4262 
     55 CA         30.8545    0.1856  -10.5814 C.3       9 UNK         0.0264 
     56 CB         31.1519   -1.2391  -10.0866 C.3       9 UNK        -0.1955 
     57 C          31.5899    1.2179   -9.7170 C.2       9 UNK         0.5031 
     58 O          32.7129    1.5877  -10.0609 O.2       9 UNK        -0.5390 
     59 N          30.9615    1.6482   -8.6127 N.am      10 UNK        -0.4204 
     60 CA         31.4619    2.5989   -7.6091 C.3       10 UNK         0.0237 
     61 CB         31.7330    3.9853   -8.2319 C.3       10 UNK        -0.1985 
     62 C          32.6499    2.0800   -6.7722 C.2       10 UNK         0.4970 
     63 O          33.2831    2.8716   -6.0720 O.2       10 UNK        -0.4914 
     64 N          32.9178    0.7691   -6.8272 N.am      11 UNK        -0.4285 
     65 CA         33.9478    0.0804   -6.0352 C.3       11 UNK         0.1007 
     66 C          33.5550   -0.2001   -4.5571 C.2       11 UNK         0.5703 
     67 N          32.3019   -0.0237   -4.1559 N.am      11 UNK        -0.7361 
     68 O          34.4119   -0.5687   -3.7576 O.2       11 UNK        -0.4986 
     69 C69        34.4754   -1.1885   -6.7578 C.3       12 UNK        -0.0947 
     70 S70        33.1743   -2.3556   -7.2963 S.3       12 UNK        -0.2240 
     71 C71        33.4614   -3.8203   -6.2528 C.3       12 UNK         0.0194 
     72 H72        27.6674   -5.1172    1.8946 H         1 UNK         0.0906 
     73 H73        29.2451   -5.1288    1.1047 H         1 UNK         0.0906 
     74 H74        29.0973   -4.5637    2.7695 H         1 UNK         0.0906 
     75 H75        29.5072   -3.4317   -0.3209 H         1 UNK         0.3140 
     76 H76        29.0139   -0.7121    0.3047 H         1 UNK         0.1085 
     77 H77        29.4896   -1.8973   -2.4880 H         1 UNK         0.0836 
     78 H78        29.6532   -0.2397   -2.0260 H         1 UNK         0.0836 
     79 H79        32.8685   -3.4648   -1.2267 H         1 UNK         0.0731 
     80 H80        31.2355   -3.8621   -0.8003 H         1 UNK         0.0731 
     81 H81        33.5371   -3.1232   -3.6094 H         1 UNK         0.1312 
     82 H82        30.9672   -4.8502   -6.5771 H         1 UNK         0.1406 
     83 H83        29.5782   -4.3811   -2.5514 H         1 UNK         0.1631 
     84 H84        28.8585   -6.2942   -5.2088 H         1 UNK         0.0717 
     85 H85        28.0550   -5.1511   -4.1611 H         1 UNK         0.0717 
     86 H86        27.9351   -2.4507   -5.0220 H         1 UNK         0.0934 
     87 H87        29.3080   -2.4334   -6.1043 H         1 UNK         0.0934 
     88 H88        27.6848   -2.0795   -8.0557 H         1 UNK         0.0739 
     89 H89        25.6930   -2.2091   -5.9899 H         1 UNK         0.3093 
     90 H90        23.0664   -0.7421   -7.9544 H         1 UNK         0.0818 
     91 H91        22.0393   -2.8871   -7.2661 H         1 UNK         0.0819 
     92 H92        23.2580   -3.1786   -8.4947 H         1 UNK         0.0819 
     93 H93        23.6135   -3.5390   -6.8113 H         1 UNK         0.0819 
     94 H94        23.1134   -1.6431   -5.2496 H         1 UNK         0.3041 
     95 H95        24.0870    1.4156   -3.7242 H         1 UNK         0.0784 
     96 H96        21.6717    1.7605   -4.2818 H         1 UNK         0.0793 
     97 H97        21.3275    0.0895   -3.8573 H         1 UNK         0.0793 
     98 H98        21.8848    1.2229   -2.6254 H         1 UNK         0.0793 
     99 H99        23.2084   -0.8695   -2.4427 H         1 UNK         0.3024 
    100 H100       24.6670   -2.0275   -1.2095 H         1 UNK         0.1171 
    101 H101       25.1403   -4.3759   -1.9186 H         1 UNK         0.0786 
    102 H102       24.0128   -3.6312   -3.0368 H         1 UNK         0.0786 
    103 H103       25.7010   -3.8125   -3.4933 H         1 UNK         0.0786 
    104 H104       27.2228   -3.0698   -1.6429 H         1 UNK         0.2977 
    105 H105       26.8345    0.0506   -5.3004 H         1 UNK         0.3127 
    106 H106       28.8561    1.9701   -5.6397 H         1 UNK         0.0770 
    107 H107       26.0081    2.4050   -4.6121 H         1 UNK         0.0814 
    108 H108       27.3939    3.4360   -4.2966 H         1 UNK         0.0814 
    109 H109       27.3539    1.8038   -3.6441 H         1 UNK         0.0814 
    110 H110       25.6676    1.7380   -7.2589 H         1 UNK         0.2983 
    111 H111       25.9808    4.1923   -8.7614 H         1 UNK         0.0947 
    112 H112       23.9385    3.3697   -9.9503 H         1 UNK         0.0806 
    113 H113       23.7433    3.3109   -8.2053 H         1 UNK         0.0806 
    114 H114       24.0572    1.8306   -9.1052 H         1 UNK         0.0806 
    115 H115       26.2378    0.6866   -9.6453 H         1 UNK         0.3000 
    116 H116       26.7738    1.3037  -12.3931 H         1 UNK         0.0850 
    117 H117       26.9675   -1.1558  -12.6365 H         1 UNK         0.0810 
    118 H118       25.5538   -0.7357  -11.6819 H         1 UNK         0.0810 
    119 H119       27.0019   -1.3532  -10.8898 H         1 UNK         0.0810 
    120 H120       28.9127    0.2110   -9.7188 H         1 UNK         0.3040 
    121 H121       31.2594    0.2727  -11.5919 H         1 UNK         0.0766 
    122 H122       30.6983   -1.9857  -10.7385 H         1 UNK         0.0812 
    123 H123       30.7755   -1.4069   -9.0767 H         1 UNK         0.0812 
    124 H124       32.2255   -1.4314  -10.0751 H         1 UNK         0.0812 
    125 H125       30.0680    1.2134   -8.3832 H         1 UNK         0.3205 
    126 H126       30.6484    2.7268   -6.8969 H         1 UNK         0.0754 
    127 H127       31.9399    4.7278   -7.4603 H         1 UNK         0.0769 
    128 H128       30.8683    4.3397   -8.7935 H         1 UNK         0.0769 
    129 H129       32.5905    3.9706   -8.9049 H         1 UNK         0.0769 
    130 H130       32.3536    0.1774   -7.4178 H         1 UNK         0.2981 
    131 H131       34.7992    0.7603   -5.9667 H         1 UNK         0.0541 
    132 H132       31.5916    0.2713   -4.8031 H         1 UNK         0.3459 
    133 H133       32.0667   -0.2402   -3.1985 H         1 UNK         0.3459 
    134 H134       35.2219   -1.7005   -6.1489 H         1 UNK         0.0612 
    135 H135       35.0092   -0.8805   -7.6580 H         1 UNK         0.0612 
    136 H136       34.4447   -3.7807   -5.7832 H         1 UNK         0.0624 
    137 H137       33.4720   -4.7034   -6.8933 H         1 UNK         0.0624 
@<TRIPOS>BOND
     1    1    2 1    
     2    1   72 1    
     3    1   73 1    
     4    1   74 1    
     5    2    3 2    
     6    2    4 am   BACKBONE|DICT|INTERRES
     7    4    5 1    
     8    4   75 1    
     9    5    6 1    
    10    5   35 1    
    11    5   76 1    
    12    6    7 1    
    13    6   77 1    
    14    6   78 1    
    15    7    8 1    
    16    8    9 1    
    17    8   79 1    
    18    8   80 1    
    19    9   10 ar   
    20    9   14 ar   
    21   10   11 ar   
    22   10   81 1    
    23   11   12 ar   
    24   11   71 1    
    25   12   13 ar   
    26   12   82 1    
    27   13   14 ar   
    28   13   15 1    
    29   14   83 1    
    30   15   16 1    
    31   15   84 1    
    32   15   85 1    
    33   16   17 1    
    34   17   18 1    
    35   17   86 1    
    36   17   87 1    
    37   18   19 1    
    38   18   37 1    
    39   18   88 1    
    40   19   20 am   BACKBONE|DICT|INTERRES
    41   19   89 1    
    42   20   21 2    
    43   20   22 1    
    44   22   23 1    
    45   22   24 1    
    46   22   90 1    
    47   23   91 1    
    48   23   92 1    
    49   23   93 1    
    50   24   25 am   BACKBONE|DICT|INTERRES
    51   24   94 1    
    52   25   26 2    
    53   25   27 1    
    54   27   28 1    
    55   27   29 1    
    56   27   95 1    
    57   28   96 1    
    58   28   97 1    
    59   28   98 1    
    60   29   30 am   BACKBONE|DICT|INTERRES
    61   29   99 1    
    62   30   31 2    
    63   30   32 1    
    64   32   33 1    
    65   32   34 1    
    66   32  100 1    
    67   33  101 1    
    68   33  102 1    
    69   33  103 1    
    70   34   35 am   BACKBONE|DICT|INTERRES
    71   34  104 1    
    72   35   36 2    
    73   37   38 2    
    74   37   39 am   BACKBONE|DICT|INTERRES
    75   39   40 1    
    76   39  105 1    
    77   40   41 1    
    78   40   42 1    
    79   40  106 1    
    80   41  107 1    
    81   41  108 1    
    82   41  109 1    
    83   42   43 2    
    84   42   44 am   BACKBONE|DICT|INTERRES
    85   44   45 1    
    86   44  110 1    
    87   45   46 1    
    88   45   47 1    
    89   45  111 1    
    90   46  112 1    
    91   46  113 1    
    92   46  114 1    
    93   47   48 2    
    94   47   49 am   BACKBONE|DICT|INTERRES
    95   49   50 1    
    96   49  115 1    
    97   50   51 1    
    98   50   52 1    
    99   50  116 1    
   100   51  117 1    
   101   51  118 1    
   102   51  119 1    
   103   52   53 2    
   104   52   54 am   BACKBONE|DICT|INTERRES
   105   54   55 1    
   106   54  120 1    
   107   55   56 1    
   108   55   57 1    
   109   55  121 1    
   110   56  122 1    
   111   56  123 1    
   112   56  124 1    
   113   57   58 2    
   114   57   59 am   BACKBONE|DICT|INTERRES
   115   59   60 1    
   116   59  125 1    
   117   60   61 1    
   118   60   62 1    
   119   60  126 1    
   120   61  127 1    
   121   61  128 1    
   122   61  129 1    
   123   62   63 2    
   124   62   64 am   BACKBONE|DICT|INTERRES
   125   64   65 1    
   126   64  130 1    
   127   65   66 1    
   128   65   69 1    
   129   65  131 1    
   130   66   67 am   BACKBONE|DICT|INTERRES
   131   66   68 2    
   132   67  132 1    
   133   67  133 1    
   134   69   70 1    
   135   69  134 1    
   136   69  135 1    
   137   70   71 1    
   138   71  136 1    
   139   71  137 1    
@<TRIPOS>SUBSTRUCTURE
     1 UNK         1 GROUP             0       ****    0 ROOT    
