@<TRIPOS>MOLECULE
3R137
137   139    1
SMALL
USER_CHARGES


@<TRIPOS>ATOM
      1 CA         24.6982   -1.7276   -0.8340 C.3       0 UNK        -0.2020 
      2 C          25.5847   -2.2467   -1.9538 C.2       0 UNK         0.4855 
      3 O          25.5360   -1.7226   -3.0666 O.2       0 UNK        -0.5197 
      4 N          26.4039   -3.2704   -1.6849 N.am      1 UNK        -0.4892 
      5 CA         27.2884   -3.8890   -2.6765 C.3       1 UNK         0.0835 
      6 C6         28.2627   -4.8974   -2.0233 C.3       12 UNK        -0.0855 
      7 S7         29.7819   -5.1089   -3.0115 S.3       12 UNK        -0.2931 
      8 C8         31.0427   -4.3726   -1.9239 C.3       12 UNK         0.0378 
      9 C9         31.1250   -2.8583   -2.0664 C.ar      12 UNK        -0.0802 
     10 C10        32.0548   -2.2954   -2.9471 C.ar      12 UNK        -0.0944 
     11 C11        32.2080   -0.9090   -3.0262 C.ar      12 UNK        -0.0787 
     12 C12        31.4127   -0.0828   -2.2290 C.ar      12 UNK        -0.0862 
     13 C13        30.4604   -0.6286   -1.3627 C.ar      12 UNK        -0.0733 
     14 C14        30.3221   -2.0190   -1.2839 C.ar      12 UNK        -0.0832 
     15 C15        29.6258    0.2853   -0.4723 C.3       12 UNK         0.0240 
     16 S16        27.9697    0.6292   -1.1534 S.3       12 UNK        -0.2522 
     17 C17        28.3517    1.5524   -2.6820 C.3       12 UNK        -0.0967 
     18 CA         27.8946    0.7487   -3.9307 C.3       5 UNK         0.0660 
     19 N          26.4329    0.6656   -4.0324 N.am      5 UNK        -0.4015 
     20 C          25.5917    1.6443   -4.3948 C.2       4 UNK         0.4946 
     21 O          25.9593    2.7719   -4.7323 O.2       4 UNK        -0.5353 
     22 CA         24.0943    1.2941   -4.3863 C.3       4 UNK         0.0277 
     23 CB         23.2149    2.3592   -5.0723 C.3       4 UNK        -0.1981 
     24 N          23.8595   -0.0123   -5.0047 N.am      4 UNK        -0.4209 
     25 C          22.9000   -0.8723   -4.6352 C.2       3 UNK         0.4942 
     26 O          22.1099   -0.6712   -3.7121 O.2       3 UNK        -0.5208 
     27 CA         22.8016   -2.1772   -5.4349 C.3       3 UNK         0.0250 
     28 CB         22.1305   -1.8933   -6.7982 C.3       3 UNK        -0.1990 
     29 N          24.1224   -2.8068   -5.5681 N.am      3 UNK        -0.4232 
     30 C          24.3884   -3.9585   -6.2052 C.2       2 UNK         0.4993 
     31 O          23.5401   -4.6367   -6.7853 O.2       2 UNK        -0.5286 
     32 CA         25.8452   -4.4600   -6.2041 C.3       2 UNK         0.0209 
     33 CB         26.5696   -4.0153   -7.4843 C.3       2 UNK        -0.1931 
     34 N          26.6172   -4.0291   -5.0364 N.am      2 UNK        -0.4546 
     35 C          26.4577   -4.5353   -3.8066 C.2       1 UNK         0.5154 
     36 O          25.6734   -5.4486   -3.5368 O.2       1 UNK        -0.5181 
     37 C          28.5069    1.2033   -5.2723 C.2       5 UNK         0.5014 
     38 O          28.1734    0.6077   -6.2984 O.2       5 UNK        -0.5248 
     39 N          29.3528    2.2430   -5.2693 N.am      6 UNK        -0.4434 
     40 CA         30.0785    2.7587   -6.4370 C.3       6 UNK         0.0363 
     41 CB         31.0865    3.8201   -5.9660 C.3       6 UNK        -0.1936 
     42 C          29.2012    3.3063   -7.5798 C.2       6 UNK         0.5081 
     43 O          29.7198    3.5254   -8.6748 O.2       6 UNK        -0.5248 
     44 N          27.8993    3.5098   -7.3335 N.am      7 UNK        -0.4718 
     45 CA         26.9191    3.8439   -8.3688 C.3       7 UNK         0.0273 
     46 CB         25.6927    4.4972   -7.7120 C.3       7 UNK        -0.1935 
     47 C          26.4979    2.6264   -9.2166 C.2       7 UNK         0.5018 
     48 O          25.8972    2.8281  -10.2730 O.2       7 UNK        -0.5186 
     49 N          26.7933    1.4030   -8.7511 N.am      8 UNK        -0.4240 
     50 CA         26.4222    0.1477   -9.4075 C.3       8 UNK         0.0235 
     51 CB         25.3001   -0.5280   -8.6023 C.3       8 UNK        -0.2000 
     52 C          27.6189   -0.8001   -9.5758 C.2       8 UNK         0.4941 
     53 O          27.7680   -1.3901  -10.6468 O.2       8 UNK        -0.5273 
     54 N          28.4355   -0.9536   -8.5259 N.am      9 UNK        -0.4262 
     55 CA         29.6155   -1.8162   -8.5063 C.3       9 UNK         0.0264 
     56 CB         29.9394   -2.1899   -7.0492 C.3       9 UNK        -0.1955 
     57 C          30.8187   -1.1230   -9.1605 C.2       9 UNK         0.5031 
     58 O          30.9410    0.1033   -9.0957 O.2       9 UNK        -0.5390 
     59 N          31.7200   -1.9275   -9.7369 N.am      10 UNK        -0.4204 
     60 CA         32.9666   -1.4862  -10.3684 C.3       10 UNK         0.0237 
     61 CB         33.4128   -2.5507  -11.3892 C.3       10 UNK        -0.1985 
     62 C          34.0546   -1.1721   -9.3220 C.2       10 UNK         0.4970 
     63 O          35.1002   -1.8243   -9.3004 O.2       10 UNK        -0.4914 
     64 N          33.7755   -0.1892   -8.4594 N.am      11 UNK        -0.4285 
     65 CA         34.6643    0.2746   -7.3816 C.3       11 UNK         0.1007 
     66 C          35.9187    1.0613   -7.8638 C.2       11 UNK         0.5703 
     67 N          35.9889    1.5078   -9.1127 N.am      11 UNK        -0.7361 
     68 O          36.8502    1.2638   -7.0884 O.2       11 UNK        -0.4986 
     69 C69        33.8872    1.0852   -6.3126 C.3       12 UNK        -0.0947 
     70 S70        32.5278    0.1375   -5.5519 S.3       12 UNK        -0.2240 
     71 C71        33.2521   -0.2972   -3.9461 C.3       12 UNK         0.0194 
     72 H72        23.6541   -1.7464   -1.1461 H         1 UNK         0.0906 
     73 H73        24.7951   -2.3230    0.0734 H         1 UNK         0.0906 
     74 H74        24.9642   -0.6977   -0.5974 H         1 UNK         0.0906 
     75 H75        26.3873   -3.6984   -0.7703 H         1 UNK         0.3140 
     76 H76        27.8815   -3.0743   -3.1001 H         1 UNK         0.1085 
     77 H77        28.5389   -4.5597   -1.0241 H         1 UNK         0.0836 
     78 H78        27.7942   -5.8726   -1.8746 H         1 UNK         0.0836 
     79 H79        30.8566   -4.6489   -0.8849 H         1 UNK         0.0731 
     80 H80        32.0082   -4.8152   -2.1744 H         1 UNK         0.0731 
     81 H81        32.6779   -2.9378   -3.5545 H         1 UNK         0.1312 
     82 H82        31.5485    0.9886   -2.2782 H         1 UNK         0.1406 
     83 H83        29.6049   -2.4445   -0.5957 H         1 UNK         0.1631 
     84 H84        30.1451    1.2293   -0.2993 H         1 UNK         0.0717 
     85 H85        29.5080   -0.1748    0.5098 H         1 UNK         0.0717 
     86 H86        27.8558    2.5238   -2.6390 H         1 UNK         0.0934 
     87 H87        29.4196    1.7616   -2.6992 H         1 UNK         0.0934 
     88 H88        28.2457   -0.2777   -3.8084 H         1 UNK         0.0739 
     89 H89        26.0343   -0.2268   -3.7374 H         1 UNK         0.3093 
     90 H90        23.8119    1.2476   -3.3321 H         1 UNK         0.0818 
     91 H91        22.1555    2.1304   -4.9571 H         1 UNK         0.0819 
     92 H92        23.3785    3.3471   -4.6396 H         1 UNK         0.0819 
     93 H93        23.4270    2.4261   -6.1394 H         1 UNK         0.0819 
     94 H94        24.4659   -0.2540   -5.7744 H         1 UNK         0.3041 
     95 H95        22.1659   -2.8618   -4.8699 H         1 UNK         0.0784 
     96 H96        21.2257   -1.2966   -6.6724 H         1 UNK         0.0793 
     97 H97        22.7890   -1.3451   -7.4700 H         1 UNK         0.0793 
     98 H98        21.8270   -2.8096   -7.3029 H         1 UNK         0.0793 
     99 H99        24.8565   -2.3923   -5.0039 H         1 UNK         0.3024 
    100 H100       25.8055   -5.5521   -6.2026 H         1 UNK         0.1171 
    101 H101       26.0092   -4.3047   -8.3745 H         1 UNK         0.0786 
    102 H102       27.5555   -4.4737   -7.5625 H         1 UNK         0.0786 
    103 H103       26.6971   -2.9347   -7.5169 H         1 UNK         0.0786 
    104 H104       27.2755   -3.2770   -5.1754 H         1 UNK         0.2977 
    105 H105       29.5351    2.7116   -4.3949 H         1 UNK         0.3127 
    106 H106       30.6367    1.9241   -6.8648 H         1 UNK         0.0770 
    107 H107       30.5871    4.6775   -5.5133 H         1 UNK         0.0814 
    108 H108       31.6811    4.1925   -6.8014 H         1 UNK         0.0814 
    109 H109       31.7840    3.4091   -5.2358 H         1 UNK         0.0814 
    110 H110       27.5361    3.3081   -6.4092 H         1 UNK         0.2983 
    111 H111       27.3635    4.5736   -9.0495 H         1 UNK         0.0947 
    112 H112       24.9728    4.8214   -8.4647 H         1 UNK         0.0806 
    113 H113       25.9722    5.3763   -7.1313 H         1 UNK         0.0806 
    114 H114       25.1766    3.8060   -7.0469 H         1 UNK         0.0806 
    115 H115       27.3160    1.3260   -7.8833 H         1 UNK         0.3000 
    116 H116       26.0411    0.3468  -10.4115 H         1 UNK         0.0850 
    117 H117       25.0078   -1.4771   -9.0542 H         1 UNK         0.0810 
    118 H118       25.6082   -0.7318   -7.5768 H         1 UNK         0.0810 
    119 H119       24.4121    0.1032   -8.5679 H         1 UNK         0.0810 
    120 H120       28.2913   -0.3876   -7.6898 H         1 UNK         0.3040 
    121 H121       29.3916   -2.7322   -9.0577 H         1 UNK         0.0766 
    122 H122       29.1205   -2.7360   -6.5840 H         1 UNK         0.0812 
    123 H123       30.1330   -1.3056   -6.4423 H         1 UNK         0.0812 
    124 H124       30.8252   -2.8235   -6.9894 H         1 UNK         0.0812 
    125 H125       31.5659   -2.9254   -9.7060 H         1 UNK         0.3205 
    126 H126       32.7734   -0.5630  -10.9193 H         1 UNK         0.0754 
    127 H127       34.3236   -2.2411  -11.9038 H         1 UNK         0.0769 
    128 H128       32.6516   -2.7112  -12.1530 H         1 UNK         0.0769 
    129 H129       33.6174   -3.5102  -10.9123 H         1 UNK         0.0769 
    130 H130       32.8654    0.2559   -8.5241 H         1 UNK         0.2981 
    131 H131       35.0537   -0.6175   -6.8873 H         1 UNK         0.0541 
    132 H132       35.2298    1.3507   -9.7554 H         1 UNK         0.3459 
    133 H133       36.8091    2.0114   -9.4115 H         1 UNK         0.3459 
    134 H134       33.4590    1.9830   -6.7616 H         1 UNK         0.0612 
    135 H135       34.5584    1.4340   -5.5258 H         1 UNK         0.0612 
    136 H136       33.6727    0.5952   -3.4802 H         1 UNK         0.0624 
    137 H137       34.0816   -0.9891   -4.1001 H         1 UNK         0.0624 
@<TRIPOS>BOND
     1    1    2 1    
     2    1   72 1    
     3    1   73 1    
     4    1   74 1    
     5    2    3 2    
     6    2    4 am   BACKBONE|DICT|INTERRES
     7    4    5 1    
     8    4   75 1    
     9    5    6 1    
    10    5   35 1    
    11    5   76 1    
    12    6    7 1    
    13    6   77 1    
    14    6   78 1    
    15    7    8 1    
    16    8    9 1    
    17    8   79 1    
    18    8   80 1    
    19    9   10 ar   
    20    9   14 ar   
    21   10   11 ar   
    22   10   81 1    
    23   11   12 ar   
    24   11   71 1    
    25   12   13 ar   
    26   12   82 1    
    27   13   14 ar   
    28   13   15 1    
    29   14   83 1    
    30   15   16 1    
    31   15   84 1    
    32   15   85 1    
    33   16   17 1    
    34   17   18 1    
    35   17   86 1    
    36   17   87 1    
    37   18   19 1    
    38   18   37 1    
    39   18   88 1    
    40   19   20 am   BACKBONE|DICT|INTERRES
    41   19   89 1    
    42   20   21 2    
    43   20   22 1    
    44   22   23 1    
    45   22   24 1    
    46   22   90 1    
    47   23   91 1    
    48   23   92 1    
    49   23   93 1    
    50   24   25 am   BACKBONE|DICT|INTERRES
    51   24   94 1    
    52   25   26 2    
    53   25   27 1    
    54   27   28 1    
    55   27   29 1    
    56   27   95 1    
    57   28   96 1    
    58   28   97 1    
    59   28   98 1    
    60   29   30 am   BACKBONE|DICT|INTERRES
    61   29   99 1    
    62   30   31 2    
    63   30   32 1    
    64   32   33 1    
    65   32   34 1    
    66   32  100 1    
    67   33  101 1    
    68   33  102 1    
    69   33  103 1    
    70   34   35 am   BACKBONE|DICT|INTERRES
    71   34  104 1    
    72   35   36 2    
    73   37   38 2    
    74   37   39 am   BACKBONE|DICT|INTERRES
    75   39   40 1    
    76   39  105 1    
    77   40   41 1    
    78   40   42 1    
    79   40  106 1    
    80   41  107 1    
    81   41  108 1    
    82   41  109 1    
    83   42   43 2    
    84   42   44 am   BACKBONE|DICT|INTERRES
    85   44   45 1    
    86   44  110 1    
    87   45   46 1    
    88   45   47 1    
    89   45  111 1    
    90   46  112 1    
    91   46  113 1    
    92   46  114 1    
    93   47   48 2    
    94   47   49 am   BACKBONE|DICT|INTERRES
    95   49   50 1    
    96   49  115 1    
    97   50   51 1    
    98   50   52 1    
    99   50  116 1    
   100   51  117 1    
   101   51  118 1    
   102   51  119 1    
   103   52   53 2    
   104   52   54 am   BACKBONE|DICT|INTERRES
   105   54   55 1    
   106   54  120 1    
   107   55   56 1    
   108   55   57 1    
   109   55  121 1    
   110   56  122 1    
   111   56  123 1    
   112   56  124 1    
   113   57   58 2    
   114   57   59 am   BACKBONE|DICT|INTERRES
   115   59   60 1    
   116   59  125 1    
   117   60   61 1    
   118   60   62 1    
   119   60  126 1    
   120   61  127 1    
   121   61  128 1    
   122   61  129 1    
   123   62   63 2    
   124   62   64 am   BACKBONE|DICT|INTERRES
   125   64   65 1    
   126   64  130 1    
   127   65   66 1    
   128   65   69 1    
   129   65  131 1    
   130   66   67 am   BACKBONE|DICT|INTERRES
   131   66   68 2    
   132   67  132 1    
   133   67  133 1    
   134   69   70 1    
   135   69  134 1    
   136   69  135 1    
   137   70   71 1    
   138   71  136 1    
   139   71  137 1    
@<TRIPOS>SUBSTRUCTURE
     1 UNK         1 GROUP             0       ****    0 ROOT    
