@<TRIPOS>MOLECULE
3R137
137   139    1
SMALL
USER_CHARGES


@<TRIPOS>ATOM
      1 CA         24.6182   -5.2856   -4.2057 C.3       0 UNK        -0.2020 
      2 C          23.9535   -5.2455   -2.8311 C.2       0 UNK         0.4855 
      3 O          22.7599   -5.5252   -2.7433 O.2       0 UNK        -0.5197 
      4 N          24.6480   -4.9249   -1.7277 N.am      1 UNK        -0.4892 
      5 CA         26.0489   -4.5046   -1.5877 C.3       1 UNK         0.0835 
      6 C6         27.0753   -5.5839   -2.0277 C.3       12 UNK        -0.0855 
      7 S7         28.7277   -5.3215   -1.2841 S.3       12 UNK        -0.2931 
      8 C8         29.7492   -5.0130   -2.7677 C.3       12 UNK         0.0378 
      9 C9         30.6713   -3.7989   -2.6700 C.ar      12 UNK        -0.0802 
     10 C10        31.9121   -3.8421   -3.3130 C.ar      12 UNK        -0.0944 
     11 C11        32.7501   -2.7245   -3.3274 C.ar      12 UNK        -0.0787 
     12 C12        32.3510   -1.5569   -2.6731 C.ar      12 UNK        -0.0862 
     13 C13        31.1095   -1.4901   -2.0340 C.ar      12 UNK        -0.0733 
     14 C14        30.2742   -2.6129   -2.0367 C.ar      12 UNK        -0.0832 
     15 C15        30.6797   -0.2094   -1.3292 C.3       12 UNK         0.0240 
     16 S16        29.5024    0.7790   -2.3093 S.3       12 UNK        -0.2522 
     17 C17        30.5449    1.3997   -3.6816 C.3       12 UNK        -0.0967 
     18 CA         29.8041    1.5433   -5.0383 C.3       5 UNK         0.0660 
     19 N          29.0085    0.3567   -5.3610 N.am      5 UNK        -0.4015 
     20 C          29.2172   -0.4465   -6.4115 C.2       4 UNK         0.4946 
     21 O          30.0002   -0.2057   -7.3295 O.2       4 UNK        -0.5353 
     22 CA         28.4235   -1.7584   -6.4718 C.3       4 UNK         0.0277 
     23 CB         29.1889   -2.8600   -5.7337 C.3       4 UNK        -0.1981 
     24 N          27.0718   -1.6496   -5.9276 N.am      4 UNK        -0.4209 
     25 C          26.1220   -0.8594   -6.4478 C.2       3 UNK         0.4942 
     26 O          26.2915   -0.1756   -7.4582 O.2       3 UNK        -0.5208 
     27 CA         24.7798   -0.7747   -5.6953 C.3       3 UNK         0.0250 
     28 CB         23.7729   -1.7700   -6.2917 C.3       3 UNK        -0.1990 
     29 N          24.8813   -0.9898   -4.2457 N.am      3 UNK        -0.4232 
     30 C          25.6668   -0.2829   -3.4204 C.2       2 UNK         0.4993 
     31 O          26.3957    0.6311   -3.7982 O.2       2 UNK        -0.5286 
     32 CA         25.6972   -0.6832   -1.9386 C.3       2 UNK         0.0209 
     33 CB         24.6443    0.1129   -1.1519 C.3       2 UNK        -0.1931 
     34 N          25.5357   -2.1170   -1.6673 N.am      2 UNK        -0.4546 
     35 C          26.2784   -3.1038   -2.1920 C.2       1 UNK         0.5154 
     36 O          27.0699   -2.9448   -3.1227 O.2       1 UNK        -0.5181 
     37 C          28.9799    2.8434   -5.1080 C.2       5 UNK         0.5014 
     38 O          29.4896    3.8362   -5.6275 O.2       5 UNK        -0.5248 
     39 N          27.7350    2.8381   -4.6099 N.am      6 UNK        -0.4434 
     40 CA         26.8541    4.0097   -4.5650 C.3       6 UNK         0.0363 
     41 CB         25.7489    3.7983   -3.5166 C.3       6 UNK        -0.1936 
     42 C          26.2502    4.3255   -5.9396 C.2       6 UNK         0.5081 
     43 O          26.2719    5.4822   -6.3599 O.2       6 UNK        -0.5248 
     44 N          25.7612    3.2859   -6.6313 N.am      7 UNK        -0.4718 
     45 CA         25.3370    3.3627   -8.0357 C.3       7 UNK         0.0273 
     46 CB         24.1539    2.4087   -8.2756 C.3       7 UNK        -0.1935 
     47 C          26.5025    3.0826   -9.0061 C.2       7 UNK         0.5018 
     48 O          26.3203    3.2133  -10.2168 O.2       7 UNK        -0.5186 
     49 N          27.6727    2.7263   -8.4529 N.am      8 UNK        -0.4240 
     50 CA         28.9594    2.4912   -9.1132 C.3       8 UNK         0.0235 
     51 CB         29.5082    3.8037   -9.7119 C.3       8 UNK        -0.2000 
     52 C          28.9365    1.3318  -10.1271 C.2       8 UNK         0.4941 
     53 O          29.6392    1.3959  -11.1375 O.2       8 UNK        -0.5273 
     54 N          28.1478    0.2832   -9.8450 N.am      9 UNK        -0.4262 
     55 CA         27.9887   -0.8796  -10.7227 C.3       9 UNK         0.0264 
     56 CB         26.7616   -1.6958  -10.2829 C.3       9 UNK        -0.1955 
     57 C          29.2343   -1.7816  -10.8404 C.2       9 UNK         0.5031 
     58 O          29.2966   -2.5585  -11.7954 O.2       9 UNK        -0.5390 
     59 N          30.1907   -1.6879   -9.9029 N.am      10 UNK        -0.4204 
     60 CA         31.4211   -2.4907   -9.9207 C.3       10 UNK         0.0237 
     61 CB         31.1788   -3.8451   -9.2295 C.3       10 UNK        -0.1985 
     62 C          32.6379   -1.7800   -9.3084 C.2       10 UNK         0.4970 
     63 O          33.7490   -1.9798   -9.8007 O.2       10 UNK        -0.4914 
     64 N          32.4229   -0.9871   -8.2546 N.am      11 UNK        -0.4285 
     65 CA         33.4541   -0.3071   -7.4559 C.3       11 UNK         0.1007 
     66 C          33.3503    1.2439   -7.5362 C.2       11 UNK         0.5703 
     67 N          32.5539    1.8128   -8.4338 N.am      11 UNK        -0.7361 
     68 O          34.0202    1.9504   -6.7869 O.2       11 UNK        -0.4986 
     69 C69        33.4375   -0.8162   -5.9873 C.3       12 UNK        -0.0947 
     70 S70        33.8576   -2.5871   -5.8601 S.3       12 UNK        -0.2240 
     71 C71        34.0798   -2.7799   -4.0637 C.3       12 UNK         0.0194 
     72 H72        25.2786   -4.4409   -4.3840 H         1 UNK         0.0906 
     73 H73        25.1860   -6.2076   -4.3236 H         1 UNK         0.0906 
     74 H74        23.8599   -5.2674   -4.9883 H         1 UNK         0.0906 
     75 H75        24.1379   -4.9377   -0.8545 H         1 UNK         0.3140 
     76 H76        26.1870   -4.3744   -0.5125 H         1 UNK         0.1085 
     77 H77        27.1424   -5.6529   -3.1128 H         1 UNK         0.0836 
     78 H78        26.7343   -6.5655   -1.6952 H         1 UNK         0.0836 
     79 H79        29.1171   -4.8694   -3.6424 H         1 UNK         0.0731 
     80 H80        30.3316   -5.9149   -2.9620 H         1 UNK         0.0731 
     81 H81        32.2189   -4.7398   -3.8326 H         1 UNK         0.1312 
     82 H82        33.0022   -0.6936   -2.6763 H         1 UNK         0.1406 
     83 H83        29.3040   -2.5530   -1.5639 H         1 UNK         0.1631 
     84 H84        31.5466    0.4058   -1.0828 H         1 UNK         0.0717 
     85 H85        30.2110   -0.4644   -0.3777 H         1 UNK         0.0717 
     86 H86        31.0018    2.3442   -3.3791 H         1 UNK         0.0934 
     87 H87        31.3786    0.7149   -3.8237 H         1 UNK         0.0934 
     88 H88        30.5810    1.6615   -5.7975 H         1 UNK         0.0739 
     89 H89        28.3071    0.0969   -4.6774 H         1 UNK         0.3093 
     90 H90        28.3454   -2.0482   -7.5199 H         1 UNK         0.0818 
     91 H91        29.2278   -2.6475   -4.6671 H         1 UNK         0.0819 
     92 H92        28.7196   -3.8339   -5.8706 H         1 UNK         0.0819 
     93 H93        30.2199   -2.9366   -6.0812 H         1 UNK         0.0819 
     94 H94        26.8872   -2.1430   -5.0598 H         1 UNK         0.3041 
     95 H95        24.3917    0.2347   -5.8442 H         1 UNK         0.0784 
     96 H96        24.0941   -2.8027   -6.1521 H         1 UNK         0.0793 
     97 H97        23.6546   -1.6081   -7.3643 H         1 UNK         0.0793 
     98 H98        22.7873   -1.6589   -5.8393 H         1 UNK         0.0793 
     99 H99        24.3220   -1.7307   -3.8500 H         1 UNK         0.3024 
    100 H100       26.6840   -0.4008   -1.5646 H         1 UNK         0.1171 
    101 H101       24.7411   -0.0518   -0.0786 H         1 UNK         0.0786 
    102 H102       24.7571    1.1848   -1.3228 H         1 UNK         0.0786 
    103 H103       23.6295   -0.1592   -1.4448 H         1 UNK         0.0786 
    104 H104       24.8732   -2.3581   -0.9439 H         1 UNK         0.2977 
    105 H105       27.3512    1.9776   -4.2140 H         1 UNK         0.3127 
    106 H106       27.4484    4.8717   -4.2534 H         1 UNK         0.0770 
    107 H107       25.0833    2.9769   -3.7837 H         1 UNK         0.0814 
    108 H108       25.1342    4.6935   -3.4153 H         1 UNK         0.0814 
    109 H109       26.1703    3.5804   -2.5351 H         1 UNK         0.0814 
    110 H110       25.7750    2.3689   -6.2066 H         1 UNK         0.2983 
    111 H111       24.9869    4.3746   -8.2520 H         1 UNK         0.0947 
    112 H112       23.7689    2.5186   -9.2902 H         1 UNK         0.0806 
    113 H113       23.3297    2.6196   -7.5943 H         1 UNK         0.0806 
    114 H114       24.4320    1.3642   -8.1524 H         1 UNK         0.0806 
    115 H115       27.6827    2.6496   -7.4470 H         1 UNK         0.3000 
    116 H116       29.6484    2.1881   -8.3249 H         1 UNK         0.0850 
    117 H117       30.5227    3.6705  -10.0891 H         1 UNK         0.0810 
    118 H118       29.5451    4.5943   -8.9622 H         1 UNK         0.0810 
    119 H119       28.8963    4.1558  -10.5430 H         1 UNK         0.0810 
    120 H120       27.5863    0.2963   -8.9984 H         1 UNK         0.3040 
    121 H121       27.7840   -0.4984  -11.7255 H         1 UNK         0.0766 
    122 H122       25.8664   -1.0750  -10.2381 H         1 UNK         0.0812 
    123 H123       26.9017   -2.1506   -9.3034 H         1 UNK         0.0812 
    124 H124       26.5594   -2.5038  -10.9872 H         1 UNK         0.0812 
    125 H125       30.0723   -1.0203   -9.1477 H         1 UNK         0.3205 
    126 H126       31.6918   -2.6891  -10.9603 H         1 UNK         0.0754 
    127 H127       30.4048   -4.4191   -9.7393 H         1 UNK         0.0769 
    128 H128       30.8726   -3.7179   -8.1919 H         1 UNK         0.0769 
    129 H129       32.0846   -4.4530   -9.2300 H         1 UNK         0.0769 
    130 H130       31.4763   -0.8281   -7.9138 H         1 UNK         0.2981 
    131 H131       34.4393   -0.5329   -7.8668 H         1 UNK         0.0541 
    132 H132       32.5126    2.8178   -8.4825 H         1 UNK         0.3459 
    133 H133       32.0316    1.2480   -9.0825 H         1 UNK         0.3459 
    134 H134       32.4542   -0.6576   -5.5418 H         1 UNK         0.0612 
    135 H135       34.1518   -0.2626   -5.3755 H         1 UNK         0.0612 
    136 H136       34.5613   -3.7396   -3.8709 H         1 UNK         0.0624 
    137 H137       34.7643   -2.0149   -3.6939 H         1 UNK         0.0624 
@<TRIPOS>BOND
     1    1    2 1    
     2    1   72 1    
     3    1   73 1    
     4    1   74 1    
     5    2    3 2    
     6    2    4 am   BACKBONE|DICT|INTERRES
     7    4    5 1    
     8    4   75 1    
     9    5    6 1    
    10    5   35 1    
    11    5   76 1    
    12    6    7 1    
    13    6   77 1    
    14    6   78 1    
    15    7    8 1    
    16    8    9 1    
    17    8   79 1    
    18    8   80 1    
    19    9   10 ar   
    20    9   14 ar   
    21   10   11 ar   
    22   10   81 1    
    23   11   12 ar   
    24   11   71 1    
    25   12   13 ar   
    26   12   82 1    
    27   13   14 ar   
    28   13   15 1    
    29   14   83 1    
    30   15   16 1    
    31   15   84 1    
    32   15   85 1    
    33   16   17 1    
    34   17   18 1    
    35   17   86 1    
    36   17   87 1    
    37   18   19 1    
    38   18   37 1    
    39   18   88 1    
    40   19   20 am   BACKBONE|DICT|INTERRES
    41   19   89 1    
    42   20   21 2    
    43   20   22 1    
    44   22   23 1    
    45   22   24 1    
    46   22   90 1    
    47   23   91 1    
    48   23   92 1    
    49   23   93 1    
    50   24   25 am   BACKBONE|DICT|INTERRES
    51   24   94 1    
    52   25   26 2    
    53   25   27 1    
    54   27   28 1    
    55   27   29 1    
    56   27   95 1    
    57   28   96 1    
    58   28   97 1    
    59   28   98 1    
    60   29   30 am   BACKBONE|DICT|INTERRES
    61   29   99 1    
    62   30   31 2    
    63   30   32 1    
    64   32   33 1    
    65   32   34 1    
    66   32  100 1    
    67   33  101 1    
    68   33  102 1    
    69   33  103 1    
    70   34   35 am   BACKBONE|DICT|INTERRES
    71   34  104 1    
    72   35   36 2    
    73   37   38 2    
    74   37   39 am   BACKBONE|DICT|INTERRES
    75   39   40 1    
    76   39  105 1    
    77   40   41 1    
    78   40   42 1    
    79   40  106 1    
    80   41  107 1    
    81   41  108 1    
    82   41  109 1    
    83   42   43 2    
    84   42   44 am   BACKBONE|DICT|INTERRES
    85   44   45 1    
    86   44  110 1    
    87   45   46 1    
    88   45   47 1    
    89   45  111 1    
    90   46  112 1    
    91   46  113 1    
    92   46  114 1    
    93   47   48 2    
    94   47   49 am   BACKBONE|DICT|INTERRES
    95   49   50 1    
    96   49  115 1    
    97   50   51 1    
    98   50   52 1    
    99   50  116 1    
   100   51  117 1    
   101   51  118 1    
   102   51  119 1    
   103   52   53 2    
   104   52   54 am   BACKBONE|DICT|INTERRES
   105   54   55 1    
   106   54  120 1    
   107   55   56 1    
   108   55   57 1    
   109   55  121 1    
   110   56  122 1    
   111   56  123 1    
   112   56  124 1    
   113   57   58 2    
   114   57   59 am   BACKBONE|DICT|INTERRES
   115   59   60 1    
   116   59  125 1    
   117   60   61 1    
   118   60   62 1    
   119   60  126 1    
   120   61  127 1    
   121   61  128 1    
   122   61  129 1    
   123   62   63 2    
   124   62   64 am   BACKBONE|DICT|INTERRES
   125   64   65 1    
   126   64  130 1    
   127   65   66 1    
   128   65   69 1    
   129   65  131 1    
   130   66   67 am   BACKBONE|DICT|INTERRES
   131   66   68 2    
   132   67  132 1    
   133   67  133 1    
   134   69   70 1    
   135   69  134 1    
   136   69  135 1    
   137   70   71 1    
   138   71  136 1    
   139   71  137 1    
@<TRIPOS>SUBSTRUCTURE
     1 UNK         1 GROUP             0       ****    0 ROOT    
