@<TRIPOS>MOLECULE
3R137
137   139    1
SMALL
USER_CHARGES


@<TRIPOS>ATOM
      1 CA         25.3062   -4.4937   -3.8429 C.3       0 UNK        -0.2020 
      2 C          25.6123   -3.9838   -2.4440 C.2       0 UNK         0.4855 
      3 O          24.7353   -3.4053   -1.8021 O.2       0 UNK        -0.5197 
      4 N          26.8455   -4.1969   -1.9667 N.am      1 UNK        -0.4892 
      5 CA         27.3180   -3.8668   -0.6156 C.3       1 UNK         0.0835 
      6 C6         28.7647   -4.3622   -0.3656 C.3       12 UNK        -0.0855 
      7 S7         28.9738   -6.1343   -0.7589 S.3       12 UNK        -0.2931 
      8 C8         30.6794   -6.1879   -1.3997 C.3       12 UNK         0.0378 
      9 C9         30.8726   -5.3457   -2.6555 C.ar      12 UNK        -0.0802 
     10 C10        31.6892   -4.2112   -2.6184 C.ar      12 UNK        -0.0944 
     11 C11        31.9078   -3.4561   -3.7734 C.ar      12 UNK        -0.0787 
     12 C12        31.2887   -3.8290   -4.9707 C.ar      12 UNK        -0.0862 
     13 C13        30.4754   -4.9643   -5.0224 C.ar      12 UNK        -0.0733 
     14 C14        30.2710   -5.7191   -3.8617 C.ar      12 UNK        -0.0832 
     15 C15        29.8576   -5.4113   -6.3385 C.3       12 UNK         0.0240 
     16 S16        28.0937   -4.9857   -6.4359 S.3       12 UNK        -0.2522 
     17 C17        28.0967   -3.4618   -7.4398 C.3       12 UNK        -0.0967 
     18 CA         27.0023   -2.4762   -6.9440 C.3       5 UNK         0.0660 
     19 N          27.3389   -1.8266   -5.6712 N.am      5 UNK        -0.4015 
     20 C          28.2872   -0.9008   -5.4624 C.2       4 UNK         0.4946 
     21 O          29.1180   -0.5621   -6.3081 O.2       4 UNK        -0.5353 
     22 CA         28.2807   -0.2167   -4.0777 C.3       4 UNK         0.0277 
     23 CB         28.7859    1.2394   -4.1493 C.3       4 UNK        -0.1981 
     24 N          26.9909   -0.2643   -3.3671 N.am      4 UNK        -0.4209 
     25 C          25.8096    0.2291   -3.7806 C.2       3 UNK         0.4942 
     26 O          25.6381    0.7207   -4.8961 O.2       3 UNK        -0.5208 
     27 CA         24.5976    0.1297   -2.8325 C.3       3 UNK         0.0250 
     28 CB         23.4654   -0.6888   -3.4772 C.3       3 UNK        -0.1990 
     29 N          24.9269   -0.4487   -1.5273 N.am      3 UNK        -0.4232 
     30 C          25.4384    0.2431   -0.4975 C.2       2 UNK         0.4993 
     31 O          25.6012    1.4635   -0.5099 O.2       2 UNK        -0.5286 
     32 CA         25.8744   -0.5553    0.7476 C.3       2 UNK         0.0209 
     33 CB         24.7812   -0.5066    1.8274 C.3       2 UNK        -0.1931 
     34 N          26.2179   -1.9556    0.4710 N.am      2 UNK        -0.4546 
     35 C          27.2032   -2.3543   -0.3457 C.2       1 UNK         0.5154 
     36 O          27.9585   -1.5752   -0.9301 O.2       1 UNK        -0.5181 
     37 C          26.5163   -1.4650   -8.0128 C.2       5 UNK         0.5014 
     38 O          26.7455   -1.6750   -9.2054 O.2       5 UNK        -0.5248 
     39 N          25.8100   -0.4155   -7.5564 N.am      6 UNK        -0.4434 
     40 CA         25.2344    0.7065   -8.3063 C.3       6 UNK         0.0363 
     41 CB         24.3117    0.2236   -9.4461 C.3       6 UNK        -0.1936 
     42 C          26.2983    1.6932   -8.8120 C.2       6 UNK         0.5081 
     43 O          27.4929    1.3904   -8.8183 O.2       6 UNK        -0.5248 
     44 N          25.8363    2.8713   -9.2534 N.am      7 UNK        -0.4718 
     45 CA         26.6639    3.9841   -9.7411 C.3       7 UNK         0.0273 
     46 CB         25.7616    5.1979  -10.0162 C.3       7 UNK        -0.1935 
     47 C          27.5201    3.6588  -10.9804 C.2       7 UNK         0.5018 
     48 O          28.5057    4.3532  -11.2289 O.2       7 UNK        -0.5186 
     49 N          27.1455    2.6048  -11.7191 N.am      8 UNK        -0.4240 
     50 CA         27.9194    2.0345  -12.8225 C.3       8 UNK         0.0235 
     51 CB         27.0487    1.0143  -13.5740 C.3       8 UNK        -0.2000 
     52 C          29.2392    1.3827  -12.3665 C.2       8 UNK         0.4941 
     53 O          30.1854    1.3497  -13.1546 O.2       8 UNK        -0.5273 
     54 N          29.2833    0.8836  -11.1227 N.am      9 UNK        -0.4262 
     55 CA         30.4778    0.3225  -10.4941 C.3       9 UNK         0.0264 
     56 CB         30.1305   -1.0112   -9.8103 C.3       9 UNK        -0.1955 
     57 C          31.0581    1.3185   -9.4837 C.2       9 UNK         0.5031 
     58 O          32.2431    1.6438   -9.5726 O.2       9 UNK        -0.5390 
     59 N          30.2213    1.7654   -8.5324 N.am      10 UNK        -0.4204 
     60 CA         30.5124    2.7027   -7.4374 C.3       10 UNK         0.0237 
     61 CB         30.6557    4.1329   -7.9982 C.3       10 UNK        -0.1985 
     62 C          31.7142    2.3003   -6.5534 C.2       10 UNK         0.4970 
     63 O          32.3485    3.1734   -5.9579 O.2       10 UNK        -0.4914 
     64 N          32.0232    0.9967   -6.5111 N.am      11 UNK        -0.4285 
     65 CA         33.2516    0.4102   -5.9489 C.3       11 UNK         0.1007 
     66 C          34.5780    0.9386   -6.5830 C.2       11 UNK         0.5703 
     67 N          34.5666    1.4474   -7.8102 N.am      11 UNK        -0.7361 
     68 O          35.6435    0.8560   -5.9758 O.2       11 UNK        -0.4986 
     69 C69        33.2603    0.4029   -4.3924 C.3       12 UNK        -0.0947 
     70 S70        31.9637   -0.6897   -3.7271 S.3       12 UNK        -0.2240 
     71 C71        32.8577   -2.2709   -3.7458 C.3       12 UNK         0.0194 
     72 H72        26.1336   -5.0708   -4.2531 H         1 UNK         0.0906 
     73 H73        25.0946   -3.6643   -4.5151 H         1 UNK         0.0906 
     74 H74        24.4292   -5.1400   -3.8183 H         1 UNK         0.0906 
     75 H75        27.5262   -4.6745   -2.5410 H         1 UNK         0.3140 
     76 H76        26.6656   -4.3911    0.0861 H         1 UNK         0.1085 
     77 H77        29.4699   -3.7732   -0.9534 H         1 UNK         0.0836 
     78 H78        29.0438   -4.2108    0.6788 H         1 UNK         0.0836 
     79 H79        31.3622   -5.8703   -0.6099 H         1 UNK         0.0731 
     80 H80        30.9374   -7.2239   -1.6239 H         1 UNK         0.0731 
     81 H81        32.1717   -3.9252   -1.6936 H         1 UNK         0.1312 
     82 H82        31.4590   -3.2457   -5.8655 H         1 UNK         0.1406 
     83 H83        29.6495   -6.6040   -3.8986 H         1 UNK         0.1631 
     84 H84        30.3965   -4.9909   -7.1890 H         1 UNK         0.0717 
     85 H85        29.9568   -6.4940   -6.4290 H         1 UNK         0.0717 
     86 H86        29.0807   -2.9913   -7.4258 H         1 UNK         0.0934 
     87 H87        27.9230   -3.7713   -8.4717 H         1 UNK         0.0934 
     88 H88        26.1085   -3.0674   -6.7396 H         1 UNK         0.0739 
     89 H89        26.7259   -2.0331   -4.8987 H         1 UNK         0.3093 
     90 H90        28.9804   -0.7835   -3.4621 H         1 UNK         0.0818 
     91 H91        28.7852    1.7085   -3.1656 H         1 UNK         0.0819 
     92 H92        29.8089    1.2798   -4.5209 H         1 UNK         0.0819 
     93 H93        28.1717    1.8471   -4.8146 H         1 UNK         0.0819 
     94 H94        27.0480   -0.6645   -2.4348 H         1 UNK         0.3041 
     95 H95        24.2280    1.1467   -2.6848 H         1 UNK         0.0784 
     96 H96        23.1383   -0.2359   -4.4143 H         1 UNK         0.0793 
     97 H97        23.7756   -1.7088   -3.7012 H         1 UNK         0.0793 
     98 H98        22.5936   -0.7407   -2.8248 H         1 UNK         0.0793 
     99 H99        24.8224   -1.4567   -1.4388 H         1 UNK         0.3024 
    100 H100       26.7695   -0.0675    1.1406 H         1 UNK         0.1171 
    101 H101       25.1113   -0.9852    2.7496 H         1 UNK         0.0786 
    102 H102       24.5224    0.5241    2.0749 H         1 UNK         0.0786 
    103 H103       23.8667   -1.0021    1.4985 H         1 UNK         0.0786 
    104 H104       25.6086   -2.6549    0.8721 H         1 UNK         0.2977 
    105 H105       25.7593   -0.2848   -6.5496 H         1 UNK         0.3127 
    106 H106       24.6214    1.2487   -7.5844 H         1 UNK         0.0770 
    107 H107       24.8735   -0.2205  -10.2684 H         1 UNK         0.0814 
    108 H108       23.7336    1.0489   -9.8626 H         1 UNK         0.0814 
    109 H109       23.5973   -0.5186   -9.0898 H         1 UNK         0.0814 
    110 H110       24.8406    3.0398   -9.2195 H         1 UNK         0.2983 
    111 H111       27.3568    4.2479   -8.9394 H         1 UNK         0.0947 
    112 H112       26.3492    6.0542  -10.3509 H         1 UNK         0.0806 
    113 H113       25.2266    5.5081   -9.1184 H         1 UNK         0.0806 
    114 H114       25.0249    4.9857  -10.7921 H         1 UNK         0.0806 
    115 H115       26.3118    2.1089  -11.4405 H         1 UNK         0.3000 
    116 H116       28.1729    2.8446  -13.5099 H         1 UNK         0.0850 
    117 H117       26.1446    1.4776  -13.9696 H         1 UNK         0.0810 
    118 H118       26.7496    0.1860  -12.9301 H         1 UNK         0.0810 
    119 H119       27.5899    0.5894  -14.4207 H         1 UNK         0.0810 
    120 H120       28.4716    0.9903  -10.5219 H         1 UNK         0.3040 
    121 H121       31.2458    0.1209  -11.2440 H         1 UNK         0.0766 
    122 H122       29.3730   -0.8863   -9.0363 H         1 UNK         0.0812 
    123 H123       31.0099   -1.4502   -9.3376 H         1 UNK         0.0812 
    124 H124       29.7501   -1.7369  -10.5292 H         1 UNK         0.0812 
    125 H125       29.2549    1.4355   -8.5554 H         1 UNK         0.3205 
    126 H126       29.6368    2.6839   -6.7875 H         1 UNK         0.0754 
    127 H127       31.5518    4.2344   -8.6115 H         1 UNK         0.0769 
    128 H128       30.7233    4.8677   -7.1950 H         1 UNK         0.0769 
    129 H129       29.7994    4.4066   -8.6137 H         1 UNK         0.0769 
    130 H130       31.3997    0.3520   -6.9765 H         1 UNK         0.2981 
    131 H131       33.2286   -0.6302   -6.2730 H         1 UNK         0.0541 
    132 H132       35.4300    1.7738   -8.2131 H         1 UNK         0.3459 
    133 H133       33.7049    1.5130   -8.3461 H         1 UNK         0.3459 
    134 H134       33.1119    1.4091   -3.9989 H         1 UNK         0.0612 
    135 H135       34.2184    0.0624   -3.9962 H         1 UNK         0.0612 
    136 H136       33.5142   -2.3175   -2.8756 H         1 UNK         0.0624 
    137 H137       33.5075   -2.3229   -4.6202 H         1 UNK         0.0624 
@<TRIPOS>BOND
     1    1    2 1    
     2    1   72 1    
     3    1   73 1    
     4    1   74 1    
     5    2    3 2    
     6    2    4 am   BACKBONE|DICT|INTERRES
     7    4    5 1    
     8    4   75 1    
     9    5    6 1    
    10    5   35 1    
    11    5   76 1    
    12    6    7 1    
    13    6   77 1    
    14    6   78 1    
    15    7    8 1    
    16    8    9 1    
    17    8   79 1    
    18    8   80 1    
    19    9   10 ar   
    20    9   14 ar   
    21   10   11 ar   
    22   10   81 1    
    23   11   12 ar   
    24   11   71 1    
    25   12   13 ar   
    26   12   82 1    
    27   13   14 ar   
    28   13   15 1    
    29   14   83 1    
    30   15   16 1    
    31   15   84 1    
    32   15   85 1    
    33   16   17 1    
    34   17   18 1    
    35   17   86 1    
    36   17   87 1    
    37   18   19 1    
    38   18   37 1    
    39   18   88 1    
    40   19   20 am   BACKBONE|DICT|INTERRES
    41   19   89 1    
    42   20   21 2    
    43   20   22 1    
    44   22   23 1    
    45   22   24 1    
    46   22   90 1    
    47   23   91 1    
    48   23   92 1    
    49   23   93 1    
    50   24   25 am   BACKBONE|DICT|INTERRES
    51   24   94 1    
    52   25   26 2    
    53   25   27 1    
    54   27   28 1    
    55   27   29 1    
    56   27   95 1    
    57   28   96 1    
    58   28   97 1    
    59   28   98 1    
    60   29   30 am   BACKBONE|DICT|INTERRES
    61   29   99 1    
    62   30   31 2    
    63   30   32 1    
    64   32   33 1    
    65   32   34 1    
    66   32  100 1    
    67   33  101 1    
    68   33  102 1    
    69   33  103 1    
    70   34   35 am   BACKBONE|DICT|INTERRES
    71   34  104 1    
    72   35   36 2    
    73   37   38 2    
    74   37   39 am   BACKBONE|DICT|INTERRES
    75   39   40 1    
    76   39  105 1    
    77   40   41 1    
    78   40   42 1    
    79   40  106 1    
    80   41  107 1    
    81   41  108 1    
    82   41  109 1    
    83   42   43 2    
    84   42   44 am   BACKBONE|DICT|INTERRES
    85   44   45 1    
    86   44  110 1    
    87   45   46 1    
    88   45   47 1    
    89   45  111 1    
    90   46  112 1    
    91   46  113 1    
    92   46  114 1    
    93   47   48 2    
    94   47   49 am   BACKBONE|DICT|INTERRES
    95   49   50 1    
    96   49  115 1    
    97   50   51 1    
    98   50   52 1    
    99   50  116 1    
   100   51  117 1    
   101   51  118 1    
   102   51  119 1    
   103   52   53 2    
   104   52   54 am   BACKBONE|DICT|INTERRES
   105   54   55 1    
   106   54  120 1    
   107   55   56 1    
   108   55   57 1    
   109   55  121 1    
   110   56  122 1    
   111   56  123 1    
   112   56  124 1    
   113   57   58 2    
   114   57   59 am   BACKBONE|DICT|INTERRES
   115   59   60 1    
   116   59  125 1    
   117   60   61 1    
   118   60   62 1    
   119   60  126 1    
   120   61  127 1    
   121   61  128 1    
   122   61  129 1    
   123   62   63 2    
   124   62   64 am   BACKBONE|DICT|INTERRES
   125   64   65 1    
   126   64  130 1    
   127   65   66 1    
   128   65   69 1    
   129   65  131 1    
   130   66   67 am   BACKBONE|DICT|INTERRES
   131   66   68 2    
   132   67  132 1    
   133   67  133 1    
   134   69   70 1    
   135   69  134 1    
   136   69  135 1    
   137   70   71 1    
   138   71  136 1    
   139   71  137 1    
@<TRIPOS>SUBSTRUCTURE
     1 UNK         1 GROUP             0       ****    0 ROOT    
