@<TRIPOS>MOLECULE
3R137
137   139    1
SMALL
USER_CHARGES


@<TRIPOS>ATOM
      1 CA         26.3100    2.9970    1.7808 C.3       0 UNK        -0.2020 
      2 C          26.5620    2.1418    0.5480 C.2       0 UNK         0.4855 
      3 O          25.7395    2.1322   -0.3676 O.2       0 UNK        -0.5197 
      4 N          27.6958    1.4300    0.5140 N.am      1 UNK        -0.4892 
      5 CA         28.0724    0.5039   -0.5583 C.3       1 UNK         0.0835 
      6 C6         29.5813    0.1645   -0.4810 C.3       12 UNK        -0.0855 
      7 S7         30.2257   -0.5149   -2.0451 S.3       12 UNK        -0.2931 
      8 C8         30.9139   -2.1003   -1.4740 C.3       12 UNK         0.0378 
      9 C9         31.1482   -3.0360   -2.6470 C.ar      12 UNK        -0.0802 
     10 C10        32.4319   -3.2643   -3.1512 C.ar      12 UNK        -0.0944 
     11 C11        32.6211   -4.1209   -4.2420 C.ar      12 UNK        -0.0787 
     12 C12        31.5133   -4.7401   -4.8339 C.ar      12 UNK        -0.0862 
     13 C13        30.2254   -4.5034   -4.3444 C.ar      12 UNK        -0.0733 
     14 C14        30.0558   -3.6695   -3.2380 C.ar      12 UNK        -0.0832 
     15 C15        29.0067   -5.1180   -5.0179 C.3       12 UNK         0.0240 
     16 S16        28.4475   -4.1422   -6.4537 S.3       12 UNK        -0.2522 
     17 C17        28.3332   -2.4550   -5.7679 C.3       12 UNK        -0.0967 
     18 CA         27.7053   -1.4613   -6.7687 C.3       5 UNK         0.0660 
     19 N          26.3036   -1.7735   -7.0588 N.am      5 UNK        -0.4015 
     20 C          25.5229   -1.1403   -7.9425 C.2       4 UNK         0.4946 
     21 O          25.9024   -0.1864   -8.6231 O.2       4 UNK        -0.5353 
     22 CA         24.0622   -1.6128   -8.0679 C.3       4 UNK         0.0277 
     23 CB         23.9529   -2.8545   -8.9742 C.3       4 UNK        -0.1981 
     24 N          23.3832   -1.8058   -6.7760 N.am      4 UNK        -0.4209 
     25 C          23.6359   -2.7185   -5.8270 C.2       3 UNK         0.4942 
     26 O          24.4542   -3.6341   -5.9428 O.2       3 UNK        -0.5208 
     27 CA         22.8793   -2.5442   -4.4982 C.3       3 UNK         0.0250 
     28 CB         21.7507   -3.5811   -4.3809 C.3       3 UNK        -0.1990 
     29 N          23.7633   -2.6520   -3.3309 N.am      3 UNK        -0.4232 
     30 C          24.8706   -1.9237   -3.1287 C.2       2 UNK         0.4993 
     31 O          25.2802   -1.0591   -3.9101 O.2       2 UNK        -0.5286 
     32 CA         25.6684   -2.2238   -1.8530 C.3       2 UNK         0.0209 
     33 CB         26.3404   -3.6067   -1.9328 C.3       2 UNK        -0.1931 
     34 N          26.6749   -1.1761   -1.6863 N.am      2 UNK        -0.4546 
     35 C          27.1747   -0.7543   -0.5199 C.2       1 UNK         0.5154 
     36 O          26.9469   -1.3057    0.5605 O.2       1 UNK        -0.5181 
     37 C          27.9123   -0.0102   -6.2929 C.2       5 UNK         0.5014 
     38 O          28.8818    0.6167   -6.7146 O.2       5 UNK        -0.5248 
     39 N          26.9958    0.5176   -5.4680 N.am      6 UNK        -0.4434 
     40 CA         27.0054    1.9093   -5.0049 C.3       6 UNK         0.0363 
     41 CB         25.9305    2.0991   -3.9229 C.3       6 UNK        -0.1936 
     42 C          26.7993    2.9364   -6.1333 C.2       6 UNK         0.5081 
     43 O          27.3474    4.0355   -6.0509 O.2       6 UNK        -0.5248 
     44 N          26.0185    2.5691   -7.1592 N.am      7 UNK        -0.4718 
     45 CA         25.7686    3.3989   -8.3396 C.3       7 UNK         0.0273 
     46 CB         24.4352    2.9919   -8.9884 C.3       7 UNK        -0.1935 
     47 C          26.9228    3.3052   -9.3484 C.2       7 UNK         0.5018 
     48 O          27.3268    4.3279   -9.9026 O.2       7 UNK        -0.5186 
     49 N          27.4379    2.0853   -9.5579 N.am      8 UNK        -0.4240 
     50 CA         28.5799    1.7996  -10.4304 C.3       8 UNK         0.0235 
     51 CB         28.6444    0.2864  -10.6844 C.3       8 UNK        -0.2000 
     52 C          29.9220    2.3115   -9.8759 C.2       8 UNK         0.4941 
     53 O          30.8306    2.5863  -10.6615 O.2       8 UNK        -0.5273 
     54 N          30.0338    2.4055   -8.5434 N.am      9 UNK        -0.4262 
     55 CA         31.1733    2.8405   -7.7271 C.3       9 UNK         0.0264 
     56 CB         31.6070    4.2814   -8.0603 C.3       9 UNK        -0.1955 
     57 C          32.3610    1.8659   -7.7581 C.2       9 UNK         0.5031 
     58 O          32.8184    1.4326   -6.7000 O.2       9 UNK        -0.5390 
     59 N          32.8281    1.5097   -8.9591 N.am      10 UNK        -0.4204 
     60 CA         33.9517    0.6039   -9.2083 C.3       10 UNK         0.0237 
     61 CB         34.5865    0.9712  -10.5633 C.3       10 UNK        -0.1985 
     62 C          33.5382   -0.8800   -9.1257 C.2       10 UNK         0.4970 
     63 O          33.8252   -1.6440  -10.0491 O.2       10 UNK        -0.4914 
     64 N          32.8638   -1.2577   -8.0303 N.am      11 UNK        -0.4285 
     65 CA         32.3843   -2.6211   -7.7273 C.3       11 UNK         0.1007 
     66 C          31.3396   -3.1859   -8.7404 C.2       11 UNK         0.5703 
     67 N          30.6270   -2.3454   -9.4803 N.am      11 UNK        -0.7361 
     68 O          31.1558   -4.3958   -8.8505 O.2       11 UNK        -0.4986 
     69 C69        33.5531   -3.6122   -7.4500 C.3       12 UNK        -0.0947 
     70 S70        34.5419   -3.1333   -5.9934 S.3       12 UNK        -0.2240 
     71 C71        34.0252   -4.3808   -4.7705 C.3       12 UNK         0.0194 
     72 H72        25.3899    2.6826    2.2730 H         1 UNK         0.0906 
     73 H73        26.2036    4.0434    1.4960 H         1 UNK         0.0906 
     74 H74        27.1231    2.9233    2.5029 H         1 UNK         0.0906 
     75 H75        28.3150    1.4509    1.3120 H         1 UNK         0.3140 
     76 H76        27.8945    1.0259   -1.5013 H         1 UNK         0.1085 
     77 H77        29.7905   -0.5073    0.3540 H         1 UNK         0.0836 
     78 H78        30.1545    1.0713   -0.2797 H         1 UNK         0.0836 
     79 H79        31.8406   -1.9193   -0.9272 H         1 UNK         0.0731 
     80 H80        30.2238   -2.5735   -0.7733 H         1 UNK         0.0731 
     81 H81        33.2834   -2.7744   -2.6987 H         1 UNK         0.1312 
     82 H82        31.6471   -5.3923   -5.6859 H         1 UNK         0.1406 
     83 H83        29.0669   -3.4768   -2.8513 H         1 UNK         0.1631 
     84 H84        28.1839   -5.2133   -4.3084 H         1 UNK         0.0717 
     85 H85        29.2395   -6.1310   -5.3491 H         1 UNK         0.0717 
     86 H86        27.7622   -2.4778   -4.8381 H         1 UNK         0.0934 
     87 H87        29.3447   -2.1346   -5.5082 H         1 UNK         0.0934 
     88 H88        28.2449   -1.5545   -7.7132 H         1 UNK         0.0739 
     89 H89        25.8921   -2.5502   -6.5472 H         1 UNK         0.3093 
     90 H90        23.5206   -0.8050   -8.5632 H         1 UNK         0.0818 
     91 H91        24.3616   -2.6471   -9.9641 H         1 UNK         0.0819 
     92 H92        24.5009   -3.7078   -8.5735 H         1 UNK         0.0819 
     93 H93        22.9144   -3.1564   -9.1091 H         1 UNK         0.0819 
     94 H94        22.7013   -1.0926   -6.5553 H         1 UNK         0.3041 
     95 H95        22.4359   -1.5465   -4.4736 H         1 UNK         0.0784 
     96 H96        21.0636   -3.5085   -5.2252 H         1 UNK         0.0793 
     97 H97        22.1407   -4.6000   -4.3656 H         1 UNK         0.0793 
     98 H98        21.1640   -3.4313   -3.4743 H         1 UNK         0.0793 
     99 H99        23.5228   -3.3625   -2.6554 H         1 UNK         0.3024 
    100 H100       24.9812   -2.1944   -1.0040 H         1 UNK         0.1171 
    101 H101       25.6010   -4.4036   -1.8479 H         1 UNK         0.0786 
    102 H102       26.8503   -3.7477   -2.8847 H         1 UNK         0.0786 
    103 H103       27.0639   -3.7537   -1.1307 H         1 UNK         0.0786 
    104 H104       26.8574   -0.6540   -2.5342 H         1 UNK         0.2977 
    105 H105       26.2514   -0.0786   -5.1070 H         1 UNK         0.3127 
    106 H106       27.9821    2.1037   -4.5564 H         1 UNK         0.0770 
    107 H107       24.9307    1.8933   -4.3073 H         1 UNK         0.0814 
    108 H108       25.9314    3.1220   -3.5437 H         1 UNK         0.0814 
    109 H109       26.0978    1.4431   -3.0705 H         1 UNK         0.0814 
    110 H110       25.6514    1.6273   -7.1766 H         1 UNK         0.2983 
    111 H111       25.6843    4.4423   -8.0264 H         1 UNK         0.0947 
    112 H112       24.2167    3.6210   -9.8524 H         1 UNK         0.0806 
    113 H113       23.6053    3.1022   -8.2904 H         1 UNK         0.0806 
    114 H114       24.4468    1.9581   -9.3349 H         1 UNK         0.0806 
    115 H115       26.9936    1.2890   -9.1056 H         1 UNK         0.3000 
    116 H116       28.4111    2.3007  -11.3860 H         1 UNK         0.0850 
    117 H117       29.4943    0.0272  -11.3174 H         1 UNK         0.0810 
    118 H118       27.7445   -0.0679  -11.1876 H         1 UNK         0.0810 
    119 H119       28.7410   -0.2685   -9.7515 H         1 UNK         0.0810 
    120 H120       29.2758    2.0098   -7.9932 H         1 UNK         0.3040 
    121 H121       30.8022    2.8441   -6.7007 H         1 UNK         0.0766 
    122 H122       32.0062    4.3698   -9.0709 H         1 UNK         0.0812 
    123 H123       32.3853    4.6195   -7.3751 H         1 UNK         0.0812 
    124 H124       30.7708    4.9748   -7.9691 H         1 UNK         0.0812 
    125 H125       32.3368    1.8806   -9.7703 H         1 UNK         0.3205 
    126 H126       34.7083    0.7631   -8.4369 H         1 UNK         0.0754 
    127 H127       35.4648    0.3567  -10.7659 H         1 UNK         0.0769 
    128 H128       34.9124    2.0114  -10.5791 H         1 UNK         0.0769 
    129 H129       33.8872    0.8267  -11.3881 H         1 UNK         0.0769 
    130 H130       32.6855   -0.5532   -7.3232 H         1 UNK         0.2981 
    131 H131       31.8186   -2.5251   -6.8000 H         1 UNK         0.0541 
    132 H132       29.9558   -2.7175  -10.1324 H         1 UNK         0.3459 
    133 H133       30.7845   -1.3545   -9.4151 H         1 UNK         0.3459 
    134 H134       34.2182   -3.6736   -8.3122 H         1 UNK         0.0612 
    135 H135       33.1837   -4.6263   -7.2970 H         1 UNK         0.0612 
    136 H136       34.0935   -5.3780   -5.2079 H         1 UNK         0.0624 
    137 H137       34.7346   -4.3676   -3.9418 H         1 UNK         0.0624 
@<TRIPOS>BOND
     1    1    2 1    
     2    1   72 1    
     3    1   73 1    
     4    1   74 1    
     5    2    3 2    
     6    2    4 am   BACKBONE|DICT|INTERRES
     7    4    5 1    
     8    4   75 1    
     9    5    6 1    
    10    5   35 1    
    11    5   76 1    
    12    6    7 1    
    13    6   77 1    
    14    6   78 1    
    15    7    8 1    
    16    8    9 1    
    17    8   79 1    
    18    8   80 1    
    19    9   10 ar   
    20    9   14 ar   
    21   10   11 ar   
    22   10   81 1    
    23   11   12 ar   
    24   11   71 1    
    25   12   13 ar   
    26   12   82 1    
    27   13   14 ar   
    28   13   15 1    
    29   14   83 1    
    30   15   16 1    
    31   15   84 1    
    32   15   85 1    
    33   16   17 1    
    34   17   18 1    
    35   17   86 1    
    36   17   87 1    
    37   18   19 1    
    38   18   37 1    
    39   18   88 1    
    40   19   20 am   BACKBONE|DICT|INTERRES
    41   19   89 1    
    42   20   21 2    
    43   20   22 1    
    44   22   23 1    
    45   22   24 1    
    46   22   90 1    
    47   23   91 1    
    48   23   92 1    
    49   23   93 1    
    50   24   25 am   BACKBONE|DICT|INTERRES
    51   24   94 1    
    52   25   26 2    
    53   25   27 1    
    54   27   28 1    
    55   27   29 1    
    56   27   95 1    
    57   28   96 1    
    58   28   97 1    
    59   28   98 1    
    60   29   30 am   BACKBONE|DICT|INTERRES
    61   29   99 1    
    62   30   31 2    
    63   30   32 1    
    64   32   33 1    
    65   32   34 1    
    66   32  100 1    
    67   33  101 1    
    68   33  102 1    
    69   33  103 1    
    70   34   35 am   BACKBONE|DICT|INTERRES
    71   34  104 1    
    72   35   36 2    
    73   37   38 2    
    74   37   39 am   BACKBONE|DICT|INTERRES
    75   39   40 1    
    76   39  105 1    
    77   40   41 1    
    78   40   42 1    
    79   40  106 1    
    80   41  107 1    
    81   41  108 1    
    82   41  109 1    
    83   42   43 2    
    84   42   44 am   BACKBONE|DICT|INTERRES
    85   44   45 1    
    86   44  110 1    
    87   45   46 1    
    88   45   47 1    
    89   45  111 1    
    90   46  112 1    
    91   46  113 1    
    92   46  114 1    
    93   47   48 2    
    94   47   49 am   BACKBONE|DICT|INTERRES
    95   49   50 1    
    96   49  115 1    
    97   50   51 1    
    98   50   52 1    
    99   50  116 1    
   100   51  117 1    
   101   51  118 1    
   102   51  119 1    
   103   52   53 2    
   104   52   54 am   BACKBONE|DICT|INTERRES
   105   54   55 1    
   106   54  120 1    
   107   55   56 1    
   108   55   57 1    
   109   55  121 1    
   110   56  122 1    
   111   56  123 1    
   112   56  124 1    
   113   57   58 2    
   114   57   59 am   BACKBONE|DICT|INTERRES
   115   59   60 1    
   116   59  125 1    
   117   60   61 1    
   118   60   62 1    
   119   60  126 1    
   120   61  127 1    
   121   61  128 1    
   122   61  129 1    
   123   62   63 2    
   124   62   64 am   BACKBONE|DICT|INTERRES
   125   64   65 1    
   126   64  130 1    
   127   65   66 1    
   128   65   69 1    
   129   65  131 1    
   130   66   67 am   BACKBONE|DICT|INTERRES
   131   66   68 2    
   132   67  132 1    
   133   67  133 1    
   134   69   70 1    
   135   69  134 1    
   136   69  135 1    
   137   70   71 1    
   138   71  136 1    
   139   71  137 1    
@<TRIPOS>SUBSTRUCTURE
     1 UNK         1 GROUP             0       ****    0 ROOT    
