@<TRIPOS>MOLECULE
3R137
137   139    1
SMALL
USER_CHARGES


@<TRIPOS>ATOM
      1 CA         22.5330   -4.8266   -1.9836 C.3       0 UNK        -0.2020 
      2 C          23.8011   -4.2112   -1.4113 C.2       0 UNK         0.4855 
      3 O          23.7211   -3.2783   -0.6111 O.2       0 UNK        -0.5197 
      4 N          24.9713   -4.7255   -1.8136 N.am      1 UNK        -0.4892 
      5 CA         26.2862   -4.1885   -1.4440 C.3       1 UNK         0.0835 
      6 C6         27.4172   -5.2114   -1.7361 C.3       12 UNK        -0.0855 
      7 S7         28.8687   -4.9658   -0.6523 S.3       12 UNK        -0.2931 
      8 C8         30.2622   -5.4272   -1.7347 C.3       12 UNK         0.0378 
      9 C9         30.5374   -4.3856   -2.8116 C.ar      12 UNK        -0.0802 
     10 C10        31.1240   -3.1606   -2.4758 C.ar      12 UNK        -0.0944 
     11 C11        31.3770   -2.1967   -3.4584 C.ar      12 UNK        -0.0787 
     12 C12        31.0305   -2.4675   -4.7851 C.ar      12 UNK        -0.0862 
     13 C13        30.4639   -3.6962   -5.1378 C.ar      12 UNK        -0.0733 
     14 C14        30.2269   -4.6545   -4.1477 C.ar      12 UNK        -0.0832 
     15 C15        30.0904   -3.9661   -6.5903 C.3       12 UNK         0.0240 
     16 S16        28.3508   -4.4558   -6.8307 S.3       12 UNK        -0.2522 
     17 C17        27.4475   -3.2519   -5.8023 C.3       12 UNK        -0.0967 
     18 CA         26.7285   -2.1294   -6.5825 C.3       5 UNK         0.0660 
     19 N          25.6577   -1.5807   -5.7541 N.am      5 UNK        -0.4015 
     20 C          24.6185   -0.8634   -6.1928 C.2       4 UNK         0.4946 
     21 O          24.5103   -0.4510   -7.3468 O.2       4 UNK        -0.5353 
     22 CA         23.5008   -0.5858   -5.1767 C.3       4 UNK         0.0277 
     23 CB         22.6093   -1.8286   -5.0118 C.3       4 UNK        -0.1981 
     24 N          24.0505   -0.2157   -3.8718 N.am      4 UNK        -0.4209 
     25 C          24.0468    1.0270   -3.3715 C.2       3 UNK         0.4942 
     26 O          23.5009    1.9870   -3.9171 O.2       3 UNK        -0.5208 
     27 CA         24.7832    1.2521   -2.0360 C.3       3 UNK         0.0250 
     28 CB         23.7983    1.1497   -0.8600 C.3       3 UNK        -0.1990 
     29 N          25.9130    0.3476   -1.7948 N.am      3 UNK        -0.4232 
     30 C          26.9770    0.2026   -2.5976 C.2       2 UNK         0.4993 
     31 O          27.1161    0.7866   -3.6694 O.2       2 UNK        -0.5286 
     32 CA         28.0371   -0.8237   -2.1715 C.3       2 UNK         0.0209 
     33 CB         29.0189   -0.1899   -1.1735 C.3       2 UNK        -0.1931 
     34 N          27.5006   -2.0659   -1.6041 N.am      2 UNK        -0.4546 
     35 C          26.5466   -2.8374   -2.1434 C.2       1 UNK         0.5154 
     36 O          25.9044   -2.5294   -3.1535 O.2       1 UNK        -0.5181 
     37 C          27.7020   -1.0526   -7.1068 C.2       5 UNK         0.5014 
     38 O          28.1126   -1.1256   -8.2684 O.2       5 UNK        -0.5248 
     39 N          28.0392   -0.0460   -6.2820 N.am      6 UNK        -0.4434 
     40 CA         28.9715    1.0251   -6.6590 C.3       6 UNK         0.0363 
     41 CB         29.4303    1.8076   -5.4199 C.3       6 UNK        -0.1936 
     42 C          28.4023    1.9846   -7.7156 C.2       6 UNK         0.5081 
     43 O          29.1831    2.6394   -8.4016 O.2       6 UNK        -0.5248 
     44 N          27.0722    2.0228   -7.8821 N.am      7 UNK        -0.4718 
     45 CA         26.4059    2.7644   -8.9579 C.3       7 UNK         0.0273 
     46 CB         24.8877    2.7646   -8.7205 C.3       7 UNK        -0.1935 
     47 C          26.7390    2.2195  -10.3610 C.2       7 UNK         0.5018 
     48 O          26.6853    2.9819  -11.3267 O.2       7 UNK        -0.5186 
     49 N          27.0932    0.9289  -10.4427 N.am      8 UNK        -0.4240 
     50 CA         27.5803    0.2747  -11.6542 C.3       8 UNK         0.0235 
     51 CB         26.9506   -1.1246  -11.7650 C.3       8 UNK        -0.2000 
     52 C          29.1136    0.1785  -11.6538 C.2       8 UNK         0.4941 
     53 O          29.7378    0.5087  -12.6624 O.2       8 UNK        -0.5273 
     54 N          29.6934   -0.2960  -10.5419 N.am      9 UNK        -0.4262 
     55 CA         31.1072   -0.6753  -10.4545 C.3       9 UNK         0.0264 
     56 CB         31.2438   -1.7797   -9.3978 C.3       9 UNK        -0.1955 
     57 C          32.0751    0.4690  -10.1123 C.2       9 UNK         0.5031 
     58 O          33.2849    0.2402  -10.1589 O.2       9 UNK        -0.5390 
     59 N          31.5645    1.6369   -9.6964 N.am      10 UNK        -0.4204 
     60 CA         32.2807    2.8017   -9.1482 C.3       10 UNK         0.0237 
     61 CB         33.3372    3.3579  -10.1243 C.3       10 UNK        -0.1985 
     62 C          32.8739    2.5636   -7.7456 C.2       10 UNK         0.4970 
     63 O          32.7378    3.4347   -6.8865 O.2       10 UNK        -0.4914 
     64 N          33.5012    1.3985   -7.5334 N.am      11 UNK        -0.4285 
     65 CA         34.1344    0.9594   -6.2773 C.3       11 UNK         0.1007 
     66 C          35.3796    1.8056   -5.8578 C.2       11 UNK         0.5703 
     67 N          36.0449    2.4887   -6.7828 N.am      11 UNK        -0.7361 
     68 O          35.7695    1.8336   -4.6931 O.2       11 UNK        -0.4986 
     69 C69        33.0900    0.7486   -5.1391 C.3       12 UNK        -0.0947 
     70 S70        33.5741   -0.5510   -3.9497 S.3       12 UNK        -0.2240 
     71 C71        32.0024   -0.8589   -3.0796 C.3       12 UNK         0.0194 
     72 H72        22.7500   -5.6320   -2.6850 H         1 UNK         0.0906 
     73 H73        21.9532   -4.0677   -2.5084 H         1 UNK         0.0906 
     74 H74        21.9172   -5.2317   -1.1812 H         1 UNK         0.0906 
     75 H75        24.9757   -5.4697   -2.4963 H         1 UNK         0.3140 
     76 H76        26.2556   -4.0008   -0.3679 H         1 UNK         0.1085 
     77 H77        27.0625   -6.2264   -1.5491 H         1 UNK         0.0836 
     78 H78        27.7102   -5.1898   -2.7876 H         1 UNK         0.0836 
     79 H79        31.1563   -5.5461   -1.1209 H         1 UNK         0.0731 
     80 H80        30.0668   -6.4057   -2.1765 H         1 UNK         0.0731 
     81 H81        31.3756   -2.9588   -1.4435 H         1 UNK         0.1312 
     82 H82        31.2112   -1.7212   -5.5456 H         1 UNK         0.1406 
     83 H83        29.7827   -5.6025   -4.4197 H         1 UNK         0.1631 
     84 H84        30.2617   -3.0774   -7.1908 H         1 UNK         0.0717 
     85 H85        30.7410   -4.7437   -6.9921 H         1 UNK         0.0717 
     86 H86        26.7055   -3.8553   -5.2767 H         1 UNK         0.0934 
     87 H87        28.0699   -2.8308   -5.0135 H         1 UNK         0.0934 
     88 H88        26.2515   -2.5789   -7.4564 H         1 UNK         0.0739 
     89 H89        25.6691   -1.8817   -4.7809 H         1 UNK         0.3093 
     90 H90        22.8835    0.2210   -5.5777 H         1 UNK         0.0818 
     91 H91        21.7733   -1.6275   -4.3418 H         1 UNK         0.0819 
     92 H92        22.1891   -2.1379   -5.9699 H         1 UNK         0.0819 
     93 H93        23.1634   -2.6772   -4.6077 H         1 UNK         0.0819 
     94 H94        24.5467   -0.9372   -3.3607 H         1 UNK         0.3041 
     95 H95        25.1844    2.2674   -2.0599 H         1 UNK         0.0784 
     96 H96        22.9532    1.8261   -0.9972 H         1 UNK         0.0793 
     97 H97        23.3956    0.1406   -0.7589 H         1 UNK         0.0793 
     98 H98        24.2749    1.4183    0.0829 H         1 UNK         0.0793 
     99 H99        25.8779   -0.2074   -0.9519 H         1 UNK         0.3024 
    100 H100       28.5944   -1.1013   -3.0686 H         1 UNK         0.1171 
    101 H101       29.8321   -0.8716   -0.9261 H         1 UNK         0.0786 
    102 H102       29.4687    0.7137   -1.5877 H         1 UNK         0.0786 
    103 H103       28.5246    0.0898   -0.2423 H         1 UNK         0.0786 
    104 H104       27.9865   -2.4267   -0.7944 H         1 UNK         0.2977 
    105 H105       27.6177    0.0302   -5.3590 H         1 UNK         0.3127 
    106 H106       29.8552    0.5531   -7.0941 H         1 UNK         0.0770 
    107 H107       28.6263    2.4176   -5.0071 H         1 UNK         0.0814 
    108 H108       30.2492    2.4834   -5.6706 H         1 UNK         0.0814 
    109 H109       29.7858    1.1427   -4.6345 H         1 UNK         0.0814 
    110 H110       26.4906    1.4448   -7.2912 H         1 UNK         0.2983 
    111 H111       26.7584    3.7976   -8.9179 H         1 UNK         0.0947 
    112 H112       24.3796    3.3828   -9.4619 H         1 UNK         0.0806 
    113 H113       24.6363    3.1648   -7.7381 H         1 UNK         0.0806 
    114 H114       24.4672    1.7615   -8.7938 H         1 UNK         0.0806 
    115 H115       27.1214    0.3844   -9.5896 H         1 UNK         0.3000 
    116 H116       27.2818    0.8455  -12.5364 H         1 UNK         0.0850 
    117 H117       25.8644   -1.0630  -11.8351 H         1 UNK         0.0810 
    118 H118       27.1934   -1.7519  -10.9061 H         1 UNK         0.0810 
    119 H119       27.3038   -1.6419  -12.6581 H         1 UNK         0.0810 
    120 H120       29.1057   -0.5677   -9.7559 H         1 UNK         0.3040 
    121 H121       31.4204   -1.0885  -11.4159 H         1 UNK         0.0766 
    122 H122       30.5603   -2.6068   -9.5919 H         1 UNK         0.0812 
    123 H123       31.0363   -1.3884   -8.4018 H         1 UNK         0.0812 
    124 H124       32.2543   -2.1904   -9.3830 H         1 UNK         0.0812 
    125 H125       30.5549    1.7149   -9.6274 H         1 UNK         0.3205 
    126 H126       31.5242    3.5789   -9.0324 H         1 UNK         0.0754 
    127 H127       34.1741    2.6738  -10.2650 H         1 UNK         0.0769 
    128 H128       33.7498    4.2963   -9.7517 H         1 UNK         0.0769 
    129 H129       32.9024    3.5615  -11.1029 H         1 UNK         0.0769 
    130 H130       33.5977    0.7750   -8.3300 H         1 UNK         0.2981 
    131 H131       34.5447   -0.0206   -6.5228 H         1 UNK         0.0541 
    132 H132       36.8517    3.0282   -6.5113 H         1 UNK         0.3459 
    133 H133       35.7493    2.4699   -7.7453 H         1 UNK         0.3459 
    134 H134       32.1340    0.4501   -5.5701 H         1 UNK         0.0612 
    135 H135       32.8990    1.6796   -4.6025 H         1 UNK         0.0612 
    136 H136       31.2942   -0.0559   -3.2815 H         1 UNK         0.0624 
    137 H137       32.2016   -0.8225   -2.0077 H         1 UNK         0.0624 
@<TRIPOS>BOND
     1    1    2 1    
     2    1   72 1    
     3    1   73 1    
     4    1   74 1    
     5    2    3 2    
     6    2    4 am   BACKBONE|DICT|INTERRES
     7    4    5 1    
     8    4   75 1    
     9    5    6 1    
    10    5   35 1    
    11    5   76 1    
    12    6    7 1    
    13    6   77 1    
    14    6   78 1    
    15    7    8 1    
    16    8    9 1    
    17    8   79 1    
    18    8   80 1    
    19    9   10 ar   
    20    9   14 ar   
    21   10   11 ar   
    22   10   81 1    
    23   11   12 ar   
    24   11   71 1    
    25   12   13 ar   
    26   12   82 1    
    27   13   14 ar   
    28   13   15 1    
    29   14   83 1    
    30   15   16 1    
    31   15   84 1    
    32   15   85 1    
    33   16   17 1    
    34   17   18 1    
    35   17   86 1    
    36   17   87 1    
    37   18   19 1    
    38   18   37 1    
    39   18   88 1    
    40   19   20 am   BACKBONE|DICT|INTERRES
    41   19   89 1    
    42   20   21 2    
    43   20   22 1    
    44   22   23 1    
    45   22   24 1    
    46   22   90 1    
    47   23   91 1    
    48   23   92 1    
    49   23   93 1    
    50   24   25 am   BACKBONE|DICT|INTERRES
    51   24   94 1    
    52   25   26 2    
    53   25   27 1    
    54   27   28 1    
    55   27   29 1    
    56   27   95 1    
    57   28   96 1    
    58   28   97 1    
    59   28   98 1    
    60   29   30 am   BACKBONE|DICT|INTERRES
    61   29   99 1    
    62   30   31 2    
    63   30   32 1    
    64   32   33 1    
    65   32   34 1    
    66   32  100 1    
    67   33  101 1    
    68   33  102 1    
    69   33  103 1    
    70   34   35 am   BACKBONE|DICT|INTERRES
    71   34  104 1    
    72   35   36 2    
    73   37   38 2    
    74   37   39 am   BACKBONE|DICT|INTERRES
    75   39   40 1    
    76   39  105 1    
    77   40   41 1    
    78   40   42 1    
    79   40  106 1    
    80   41  107 1    
    81   41  108 1    
    82   41  109 1    
    83   42   43 2    
    84   42   44 am   BACKBONE|DICT|INTERRES
    85   44   45 1    
    86   44  110 1    
    87   45   46 1    
    88   45   47 1    
    89   45  111 1    
    90   46  112 1    
    91   46  113 1    
    92   46  114 1    
    93   47   48 2    
    94   47   49 am   BACKBONE|DICT|INTERRES
    95   49   50 1    
    96   49  115 1    
    97   50   51 1    
    98   50   52 1    
    99   50  116 1    
   100   51  117 1    
   101   51  118 1    
   102   51  119 1    
   103   52   53 2    
   104   52   54 am   BACKBONE|DICT|INTERRES
   105   54   55 1    
   106   54  120 1    
   107   55   56 1    
   108   55   57 1    
   109   55  121 1    
   110   56  122 1    
   111   56  123 1    
   112   56  124 1    
   113   57   58 2    
   114   57   59 am   BACKBONE|DICT|INTERRES
   115   59   60 1    
   116   59  125 1    
   117   60   61 1    
   118   60   62 1    
   119   60  126 1    
   120   61  127 1    
   121   61  128 1    
   122   61  129 1    
   123   62   63 2    
   124   62   64 am   BACKBONE|DICT|INTERRES
   125   64   65 1    
   126   64  130 1    
   127   65   66 1    
   128   65   69 1    
   129   65  131 1    
   130   66   67 am   BACKBONE|DICT|INTERRES
   131   66   68 2    
   132   67  132 1    
   133   67  133 1    
   134   69   70 1    
   135   69  134 1    
   136   69  135 1    
   137   70   71 1    
   138   71  136 1    
   139   71  137 1    
@<TRIPOS>SUBSTRUCTURE
     1 UNK         1 GROUP             0       ****    0 ROOT    
