@<TRIPOS>MOLECULE
3R137
137   139    1
SMALL
USER_CHARGES


@<TRIPOS>ATOM
      1 CA         25.4302   -4.8709   -2.0262 C.3       0 UNK        -0.2020 
      2 C          25.8835   -3.7757   -2.9856 C.2       0 UNK         0.4855 
      3 O          25.5228   -3.8217   -4.1602 O.2       0 UNK        -0.5197 
      4 N          26.6483   -2.7677   -2.5480 N.am      1 UNK        -0.4892 
      5 CA         27.2303   -2.5783   -1.2157 C.3       1 UNK         0.0835 
      6 C6         28.7348   -2.9628   -1.1689 C.3       12 UNK        -0.0855 
      7 S7         29.0062   -4.7620   -1.2314 S.3       12 UNK        -0.2931 
      8 C8         30.7323   -4.8487   -1.8050 C.3       12 UNK         0.0378 
      9 C9         30.8823   -4.5336   -3.2885 C.ar      12 UNK        -0.0802 
     10 C10        31.7473   -3.5205   -3.7106 C.ar      12 UNK        -0.0944 
     11 C11        31.9414   -3.2674   -5.0728 C.ar      12 UNK        -0.0787 
     12 C12        31.2539   -4.0382   -6.0189 C.ar      12 UNK        -0.0862 
     13 C13        30.3899   -5.0621   -5.6097 C.ar      12 UNK        -0.0733 
     14 C14        30.2071   -5.2986   -4.2438 C.ar      12 UNK        -0.0832 
     15 C15        29.7095   -5.9754   -6.6259 C.3       12 UNK         0.0240 
     16 S16        28.6744   -5.1014   -7.8426 S.3       12 UNK        -0.2522 
     17 C17        27.3785   -4.3491   -6.7985 C.3       12 UNK        -0.0967 
     18 CA         26.9448   -2.9661   -7.3423 C.3       5 UNK         0.0660 
     19 N          25.6378   -2.5445   -6.8297 N.am      5 UNK        -0.4015 
     20 C          24.9661   -1.4774   -7.2903 C.2       4 UNK         0.4946 
     21 O          25.3712   -0.7661   -8.2112 O.2       4 UNK        -0.5353 
     22 CA         23.6539   -1.0870   -6.5885 C.3       4 UNK         0.0277 
     23 CB         22.9488   -2.2604   -5.8756 C.3       4 UNK        -0.1981 
     24 N          23.8215    0.0451   -5.6670 N.am      4 UNK        -0.4209 
     25 C          24.7080    0.1506   -4.6657 C.2       3 UNK         0.4942 
     26 O          25.5953   -0.6767   -4.4400 O.2       3 UNK        -0.5208 
     27 CA         24.5782    1.3512   -3.7182 C.3       3 UNK         0.0250 
     28 CB         23.2287    2.0981   -3.8069 C.3       3 UNK        -0.1990 
     29 N          24.7867    0.8120   -2.3811 N.am      3 UNK        -0.4232 
     30 C          25.1379    1.4716   -1.2747 C.2       2 UNK         0.4993 
     31 O          25.2585    2.6952   -1.2059 O.2       2 UNK        -0.5286 
     32 CA         25.4055    0.6049   -0.0292 C.3       2 UNK         0.0209 
     33 CB         24.1629    0.5672    0.8757 C.3       2 UNK        -0.1931 
     34 N          25.8052   -0.7717   -0.3606 N.am      2 UNK        -0.4546 
     35 C          27.0122   -1.1019   -0.8428 C.2       1 UNK         0.5154 
     36 O          27.9116   -0.2816   -1.0295 O.2       1 UNK        -0.5181 
     37 C          28.0301   -1.8963   -7.1096 C.2       5 UNK         0.5014 
     38 O          28.8664   -1.6901   -7.9878 O.2       5 UNK        -0.5248 
     39 N          27.9669   -1.1877   -5.9735 N.am      6 UNK        -0.4434 
     40 CA         28.9058   -0.1161   -5.6451 C.3       6 UNK         0.0363 
     41 CB         28.8545    0.1934   -4.1436 C.3       6 UNK        -0.1936 
     42 C          28.6931    1.1551   -6.4771 C.2       6 UNK         0.5081 
     43 O          29.6460    1.9125   -6.6650 O.2       6 UNK        -0.5248 
     44 N          27.4679    1.3538   -6.9813 N.am      7 UNK        -0.4718 
     45 CA         27.1398    2.4047   -7.9413 C.3       7 UNK         0.0273 
     46 CB         25.6363    2.7200   -7.8767 C.3       7 UNK        -0.1935 
     47 C          27.5690    2.0016   -9.3606 C.2       7 UNK         0.5018 
     48 O          28.1676    2.8182  -10.0596 O.2       7 UNK        -0.5186 
     49 N          27.2884    0.7470   -9.7468 N.am      8 UNK        -0.4240 
     50 CA         27.6412    0.1673  -11.0466 C.3       8 UNK         0.0235 
     51 CB         26.9690   -1.2065  -11.2005 C.3       8 UNK        -0.2000 
     52 C          29.1586    0.0591  -11.2733 C.2       8 UNK         0.4941 
     53 O          29.6392    0.4545  -12.3360 O.2       8 UNK        -0.5273 
     54 N          29.8877   -0.4502  -10.2701 N.am      9 UNK        -0.4262 
     55 CA         31.3514   -0.5435  -10.2715 C.3       9 UNK         0.0264 
     56 CB         31.7889   -1.5996   -9.2431 C.3       9 UNK        -0.1955 
     57 C          32.0422    0.7993   -9.9744 C.2       9 UNK         0.5031 
     58 O          33.2447    0.9162  -10.2138 O.2       9 UNK        -0.5390 
     59 N          31.2834    1.7683   -9.4402 N.am      10 UNK        -0.4204 
     60 CA         31.6995    3.1092   -9.0156 C.3       10 UNK         0.0237 
     61 CB         32.1652    3.9516  -10.2226 C.3       10 UNK        -0.1985 
     62 C          32.7153    3.1081   -7.8544 C.2       10 UNK         0.4970 
     63 O          33.4660    4.0748   -7.7075 O.2       10 UNK        -0.4914 
     64 N          32.7131    2.0441   -7.0390 N.am      11 UNK        -0.4285 
     65 CA         33.5042    1.9482   -5.8043 C.3       11 UNK         0.1007 
     66 C          32.8848    2.7245   -4.6043 C.2       11 UNK         0.5703 
     67 N          31.6108    3.1028   -4.6464 N.am      11 UNK        -0.7361 
     68 O          33.5795    3.0033   -3.6297 O.2       11 UNK        -0.4986 
     69 C69        33.8654    0.4785   -5.4529 C.3       12 UNK        -0.0947 
     70 S70        32.4393   -0.5428   -4.9548 S.3       12 UNK        -0.2240 
     71 C71        32.9396   -2.2004   -5.5091 C.3       12 UNK         0.0194 
     72 H72        26.2766   -5.4348   -1.6401 H         1 UNK         0.0906 
     73 H73        24.8721   -4.4511   -1.1903 H         1 UNK         0.0906 
     74 H74        24.7740   -5.5739   -2.5388 H         1 UNK         0.0906 
     75 H75        26.8147   -2.0023   -3.1893 H         1 UNK         0.3140 
     76 H76        26.7048   -3.1710   -0.4656 H         1 UNK         0.1085 
     77 H77        29.2770   -2.4882   -1.9886 H         1 UNK         0.0836 
     78 H78        29.1977   -2.6015   -0.2483 H         1 UNK         0.0836 
     79 H79        31.1085   -5.8567   -1.6252 H         1 UNK         0.0731 
     80 H80        31.3448   -4.1815   -1.1963 H         1 UNK         0.0731 
     81 H81        32.2893   -2.9356   -2.9798 H         1 UNK         0.1312 
     82 H82        31.4068   -3.8611   -7.0748 H         1 UNK         0.1406 
     83 H83        29.5554   -6.0973   -3.9159 H         1 UNK         0.1631 
     84 H84        29.0930   -6.7242   -6.1260 H         1 UNK         0.0717 
     85 H85        30.4806   -6.5285   -7.1635 H         1 UNK         0.0717 
     86 H86        26.5289   -5.0336   -6.7895 H         1 UNK         0.0934 
     87 H87        27.7140   -4.2741   -5.7623 H         1 UNK         0.0934 
     88 H88        26.8211   -3.0621   -8.4228 H         1 UNK         0.0739 
     89 H89        25.3099   -3.0133   -5.9890 H         1 UNK         0.3093 
     90 H90        22.9874   -0.7453   -7.3822 H         1 UNK         0.0818 
     91 H91        21.9279   -1.9905   -5.6055 H         1 UNK         0.0819 
     92 H92        22.8860   -3.1397   -6.5183 H         1 UNK         0.0819 
     93 H93        23.4564   -2.5522   -4.9576 H         1 UNK         0.0819 
     94 H94        23.1521    0.7936   -5.7781 H         1 UNK         0.3041 
     95 H95        25.3912    2.0417   -3.9513 H         1 UNK         0.0784 
     96 H96        23.1766    2.9058   -3.0767 H         1 UNK         0.0793 
     97 H97        23.0898    2.5559   -4.7869 H         1 UNK         0.0793 
     98 H98        22.3839    1.4336   -3.6202 H         1 UNK         0.0793 
     99 H99        24.7856   -0.1987   -2.3471 H         1 UNK         0.3024 
    100 H100       26.2195    1.0788    0.5250 H         1 UNK         0.1171 
    101 H101       23.8571    1.5753    1.1597 H         1 UNK         0.0786 
    102 H102       23.3133    0.0976    0.3783 H         1 UNK         0.0786 
    103 H103       24.3592    0.0191    1.7975 H         1 UNK         0.0786 
    104 H104       25.1082   -1.4923   -0.2360 H         1 UNK         0.2977 
    105 H105       27.1756   -1.3175   -5.3495 H         1 UNK         0.3127 
    106 H106       29.9001   -0.4841   -5.8881 H         1 UNK         0.0770 
    107 H107       27.8785    0.5666   -3.8331 H         1 UNK         0.0814 
    108 H108       29.5918    0.9520   -3.8781 H         1 UNK         0.0814 
    109 H109       29.0839   -0.6926   -3.5533 H         1 UNK         0.0814 
    110 H110       26.7617    0.6513   -6.8126 H         1 UNK         0.2983 
    111 H111       27.6855    3.3122   -7.6715 H         1 UNK         0.0947 
    112 H112       25.3804    3.5266   -8.5650 H         1 UNK         0.0806 
    113 H113       25.3424    3.0423   -6.8776 H         1 UNK         0.0806 
    114 H114       25.0233    1.8593   -8.1445 H         1 UNK         0.0806 
    115 H115       26.7415    0.1586   -9.1220 H         1 UNK         0.3000 
    116 H116       27.2393    0.8282  -11.8176 H         1 UNK         0.0850 
    117 H117       27.1720   -1.6320  -12.1842 H         1 UNK         0.0810 
    118 H118       25.8864   -1.1333  -11.0950 H         1 UNK         0.0810 
    119 H119       27.3300   -1.9174  -10.4573 H         1 UNK         0.0810 
    120 H120       29.4141   -0.8135   -9.4413 H         1 UNK         0.3040 
    121 H121       31.6791   -0.8722  -11.2600 H         1 UNK         0.0766 
    122 H122       31.5122   -1.3080   -8.2292 H         1 UNK         0.0812 
    123 H123       32.8705   -1.7398   -9.2596 H         1 UNK         0.0812 
    124 H124       31.3314   -2.5678   -9.4479 H         1 UNK         0.0812 
    125 H125       30.3069    1.5574   -9.2867 H         1 UNK         0.3205 
    126 H126       30.8005    3.5826   -8.6181 H         1 UNK         0.0754 
    127 H127       32.3225    4.9926   -9.9378 H         1 UNK         0.0769 
    128 H128       31.4205    3.9451  -11.0188 H         1 UNK         0.0769 
    129 H129       33.1039    3.5827  -10.6368 H         1 UNK         0.0769 
    130 H130       32.0191    1.3255   -7.1818 H         1 UNK         0.2981 
    131 H131       34.4572    2.4439   -5.9992 H         1 UNK         0.0541 
    132 H132       31.0206    2.8338   -5.4252 H         1 UNK         0.3459 
    133 H133       31.2226    3.6139   -3.8706 H         1 UNK         0.3459 
    134 H134       34.5958    0.4548   -4.6424 H         1 UNK         0.0612 
    135 H135       34.3556    0.0110   -6.3083 H         1 UNK         0.0612 
    136 H136       33.9181   -2.4367   -5.0887 H         1 UNK         0.0624 
    137 H137       33.0595   -2.1973   -6.5927 H         1 UNK         0.0624 
@<TRIPOS>BOND
     1    1    2 1    
     2    1   72 1    
     3    1   73 1    
     4    1   74 1    
     5    2    3 2    
     6    2    4 am   BACKBONE|DICT|INTERRES
     7    4    5 1    
     8    4   75 1    
     9    5    6 1    
    10    5   35 1    
    11    5   76 1    
    12    6    7 1    
    13    6   77 1    
    14    6   78 1    
    15    7    8 1    
    16    8    9 1    
    17    8   79 1    
    18    8   80 1    
    19    9   10 ar   
    20    9   14 ar   
    21   10   11 ar   
    22   10   81 1    
    23   11   12 ar   
    24   11   71 1    
    25   12   13 ar   
    26   12   82 1    
    27   13   14 ar   
    28   13   15 1    
    29   14   83 1    
    30   15   16 1    
    31   15   84 1    
    32   15   85 1    
    33   16   17 1    
    34   17   18 1    
    35   17   86 1    
    36   17   87 1    
    37   18   19 1    
    38   18   37 1    
    39   18   88 1    
    40   19   20 am   BACKBONE|DICT|INTERRES
    41   19   89 1    
    42   20   21 2    
    43   20   22 1    
    44   22   23 1    
    45   22   24 1    
    46   22   90 1    
    47   23   91 1    
    48   23   92 1    
    49   23   93 1    
    50   24   25 am   BACKBONE|DICT|INTERRES
    51   24   94 1    
    52   25   26 2    
    53   25   27 1    
    54   27   28 1    
    55   27   29 1    
    56   27   95 1    
    57   28   96 1    
    58   28   97 1    
    59   28   98 1    
    60   29   30 am   BACKBONE|DICT|INTERRES
    61   29   99 1    
    62   30   31 2    
    63   30   32 1    
    64   32   33 1    
    65   32   34 1    
    66   32  100 1    
    67   33  101 1    
    68   33  102 1    
    69   33  103 1    
    70   34   35 am   BACKBONE|DICT|INTERRES
    71   34  104 1    
    72   35   36 2    
    73   37   38 2    
    74   37   39 am   BACKBONE|DICT|INTERRES
    75   39   40 1    
    76   39  105 1    
    77   40   41 1    
    78   40   42 1    
    79   40  106 1    
    80   41  107 1    
    81   41  108 1    
    82   41  109 1    
    83   42   43 2    
    84   42   44 am   BACKBONE|DICT|INTERRES
    85   44   45 1    
    86   44  110 1    
    87   45   46 1    
    88   45   47 1    
    89   45  111 1    
    90   46  112 1    
    91   46  113 1    
    92   46  114 1    
    93   47   48 2    
    94   47   49 am   BACKBONE|DICT|INTERRES
    95   49   50 1    
    96   49  115 1    
    97   50   51 1    
    98   50   52 1    
    99   50  116 1    
   100   51  117 1    
   101   51  118 1    
   102   51  119 1    
   103   52   53 2    
   104   52   54 am   BACKBONE|DICT|INTERRES
   105   54   55 1    
   106   54  120 1    
   107   55   56 1    
   108   55   57 1    
   109   55  121 1    
   110   56  122 1    
   111   56  123 1    
   112   56  124 1    
   113   57   58 2    
   114   57   59 am   BACKBONE|DICT|INTERRES
   115   59   60 1    
   116   59  125 1    
   117   60   61 1    
   118   60   62 1    
   119   60  126 1    
   120   61  127 1    
   121   61  128 1    
   122   61  129 1    
   123   62   63 2    
   124   62   64 am   BACKBONE|DICT|INTERRES
   125   64   65 1    
   126   64  130 1    
   127   65   66 1    
   128   65   69 1    
   129   65  131 1    
   130   66   67 am   BACKBONE|DICT|INTERRES
   131   66   68 2    
   132   67  132 1    
   133   67  133 1    
   134   69   70 1    
   135   69  134 1    
   136   69  135 1    
   137   70   71 1    
   138   71  136 1    
   139   71  137 1    
@<TRIPOS>SUBSTRUCTURE
     1 UNK         1 GROUP             0       ****    0 ROOT    
