@<TRIPOS>MOLECULE
3R137
137   139    1
SMALL
USER_CHARGES


@<TRIPOS>ATOM
      1 CA         31.3478   -6.0179   -6.2926 C.3       0 UNK        -0.2020 
      2 C          30.5400   -6.0737   -5.0052 C.2       0 UNK         0.4855 
      3 O          30.1006   -7.1527   -4.6066 O.2       0 UNK        -0.5197 
      4 N          30.3336   -4.9215   -4.3567 N.am      1 UNK        -0.4892 
      5 CA         29.4901   -4.7796   -3.1654 C.3       1 UNK         0.0835 
      6 C6         29.8110   -3.4929   -2.3729 C.3       12 UNK        -0.0855 
      7 S7         31.4664   -3.5156   -1.6054 S.3       12 UNK        -0.2931 
      8 C8         31.3848   -2.0416   -0.5308 C.3       12 UNK         0.0378 
      9 C9         31.2853   -0.7664   -1.3541 C.ar      12 UNK        -0.0802 
     10 C10        32.4414   -0.1003   -1.7735 C.ar      12 UNK        -0.0944 
     11 C11        32.3494    1.0053   -2.6257 C.ar      12 UNK        -0.0787 
     12 C12        31.0928    1.4463   -3.0500 C.ar      12 UNK        -0.0862 
     13 C13        29.9336    0.7908   -2.6282 C.ar      12 UNK        -0.0733 
     14 C14        30.0329   -0.2901   -1.7518 C.ar      12 UNK        -0.0832 
     15 C15        28.5820    1.1873   -3.1914 C.3       12 UNK         0.0240 
     16 S16        28.1656    0.0854   -4.5791 S.3       12 UNK        -0.2522 
     17 C17        27.3120    1.2193   -5.7190 C.3       12 UNK        -0.0967 
     18 CA         25.9177    0.6858   -6.1365 C.3       5 UNK         0.0660 
     19 N          24.9916    0.4957   -5.0172 N.am      5 UNK        -0.4015 
     20 C          24.5234    1.4335   -4.1790 C.2       4 UNK         0.4946 
     21 O          24.8077    2.6295   -4.2526 O.2       4 UNK        -0.5353 
     22 CA         23.5628    0.9786   -3.0623 C.3       4 UNK         0.0277 
     23 CB         22.1301    1.4511   -3.3630 C.3       4 UNK        -0.1981 
     24 N          23.5463   -0.4697   -2.8448 N.am      4 UNK        -0.4209 
     25 C          24.5189   -1.1771   -2.2535 C.2       3 UNK         0.4942 
     26 O          25.5334   -0.6784   -1.7652 O.2       3 UNK        -0.5208 
     27 CA         24.3380   -2.7070   -2.2112 C.3       3 UNK         0.0250 
     28 CB         22.8759   -3.1723   -2.4024 C.3       3 UNK        -0.1990 
     29 N          25.2150   -3.3937   -3.1660 N.am      3 UNK        -0.4232 
     30 C          25.3206   -3.1852   -4.4862 C.2       2 UNK         0.4993 
     31 O          24.6714   -2.3303   -5.0945 O.2       2 UNK        -0.5286 
     32 CA         26.3060   -4.0915   -5.2575 C.3       2 UNK         0.0209 
     33 CB         26.4331   -3.6868   -6.7383 C.3       2 UNK        -0.1931 
     34 N          27.6507   -4.1462   -4.6703 N.am      2 UNK        -0.4546 
     35 C          27.9990   -4.8009   -3.5519 C.2       1 UNK         0.5154 
     36 O          27.1943   -5.4030   -2.8390 O.2       1 UNK        -0.5181 
     37 C          25.2813    1.5373   -7.2488 C.2       5 UNK         0.5014 
     38 O          25.7177    2.6628   -7.4950 O.2       5 UNK        -0.5248 
     39 N          24.2796    0.9708   -7.9371 N.am      6 UNK        -0.4434 
     40 CA         23.6076    1.5903   -9.0892 C.3       6 UNK         0.0363 
     41 CB         22.4480    0.6911   -9.5464 C.3       6 UNK        -0.1936 
     42 C          24.5490    1.9009  -10.2725 C.2       6 UNK         0.5081 
     43 O          24.2994    2.8529  -11.0116 O.2       6 UNK        -0.5248 
     44 N          25.6255    1.1141  -10.4099 N.am      7 UNK        -0.4718 
     45 CA         26.7030    1.3163  -11.3836 C.3       7 UNK         0.0273 
     46 CB         27.2967   -0.0563  -11.7461 C.3       7 UNK        -0.1935 
     47 C          27.8110    2.2686  -10.8862 C.2       7 UNK         0.5018 
     48 O          28.7566    2.5157  -11.6368 O.2       7 UNK        -0.5186 
     49 N          27.7049    2.7620   -9.6413 N.am      8 UNK        -0.4240 
     50 CA         28.6547    3.5999   -8.8967 C.3       8 UNK         0.0235 
     51 CB         28.8864    4.9617   -9.5829 C.3       8 UNK        -0.2000 
     52 C          29.9761    2.8832   -8.5742 C.2       8 UNK         0.4941 
     53 O          30.2614    2.6288   -7.4035 O.2       8 UNK        -0.5273 
     54 N          30.7504    2.5428   -9.6098 N.am      9 UNK        -0.4262 
     55 CA         32.0364    1.8498   -9.5236 C.3       9 UNK         0.0264 
     56 CB         32.8703    2.1994  -10.7705 C.3       9 UNK        -0.1955 
     57 C          31.8437    0.3322   -9.3419 C.2       9 UNK         0.5031 
     58 O          32.2717   -0.4504  -10.1925 O.2       9 UNK        -0.5390 
     59 N          31.1900   -0.0529   -8.2402 N.am      10 UNK        -0.4204 
     60 CA         30.8773   -1.4371   -7.8779 C.3       10 UNK         0.0237 
     61 CB         29.3558   -1.6548   -7.9608 C.3       10 UNK        -0.1985 
     62 C          31.4589   -1.7896   -6.4992 C.2       10 UNK         0.4970 
     63 O          30.8230   -2.5130   -5.7309 O.2       10 UNK        -0.4914 
     64 N          32.6671   -1.2865   -6.2172 N.am      11 UNK        -0.4285 
     65 CA         33.4051   -1.5181   -4.9645 C.3       11 UNK         0.1007 
     66 C          33.9952   -2.9507   -4.8057 C.2       11 UNK         0.5703 
     67 N          34.0049   -3.7868   -5.8376 N.am      11 UNK        -0.7361 
     68 O          34.4674   -3.3061   -3.7291 O.2       11 UNK        -0.4986 
     69 C69        34.5126   -0.4516   -4.7377 C.3       12 UNK        -0.0947 
     70 S70        33.9319    1.2735   -4.8768 S.3       12 UNK        -0.2240 
     71 C71        33.6032    1.6974   -3.1364 C.3       12 UNK         0.0194 
     72 H72        31.4847   -4.9956   -6.6418 H         1 UNK         0.0906 
     73 H73        30.8402   -6.5746   -7.0799 H         1 UNK         0.0906 
     74 H74        32.3304   -6.4625   -6.1386 H         1 UNK         0.0906 
     75 H75        30.6872   -4.0511   -4.7522 H         1 UNK         0.3140 
     76 H76        29.6647   -5.6361   -2.5100 H         1 UNK         0.1085 
     77 H77        29.7424   -2.6291   -3.0368 H         1 UNK         0.0836 
     78 H78        29.0781   -3.3386   -1.5779 H         1 UNK         0.0836 
     79 H79        32.2764   -2.0111    0.0974 H         1 UNK         0.0731 
     80 H80        30.5349   -2.1264    0.1483 H         1 UNK         0.0731 
     81 H81        33.4125   -0.4713   -1.4749 H         1 UNK         0.1312 
     82 H82        31.0223    2.2722   -3.7451 H         1 UNK         0.1406 
     83 H83        29.1338   -0.8067   -1.4440 H         1 UNK         0.1631 
     84 H84        28.6102    2.2285   -3.5149 H         1 UNK         0.0717 
     85 H85        27.8070    1.1168   -2.4264 H         1 UNK         0.0717 
     86 H86        27.2285    2.2153   -5.2823 H         1 UNK         0.0934 
     87 H87        27.9531    1.3327   -6.5946 H         1 UNK         0.0934 
     88 H88        26.0712   -0.3055   -6.5656 H         1 UNK         0.0739 
     89 H89        24.7055   -0.4704   -4.8725 H         1 UNK         0.3093 
     90 H90        23.8944    1.4569   -2.1380 H         1 UNK         0.0818 
     91 H91        21.4499    1.2023   -2.5481 H         1 UNK         0.0819 
     92 H92        21.7399    1.0024   -4.2774 H         1 UNK         0.0819 
     93 H93        22.0946    2.5339   -3.4914 H         1 UNK         0.0819 
     94 H94        22.7646   -0.9776   -3.2334 H         1 UNK         0.3041 
     95 H95        24.6556   -3.0225   -1.2161 H         1 UNK         0.0784 
     96 H96        22.2079   -2.6794   -1.6944 H         1 UNK         0.0793 
     97 H97        22.5033   -2.9753   -3.4083 H         1 UNK         0.0793 
     98 H98        22.7856   -4.2446   -2.2281 H         1 UNK         0.0793 
     99 H99        25.8184   -4.1137   -2.7757 H         1 UNK         0.3024 
    100 H100       25.8845   -5.0988   -5.2270 H         1 UNK         0.1171 
    101 H101       25.4647   -3.7230   -7.2393 H         1 UNK         0.0786 
    102 H102       26.8155   -2.6716   -6.8428 H         1 UNK         0.0786 
    103 H103       27.0996   -4.3580   -7.2802 H         1 UNK         0.0786 
    104 H104       28.3783   -3.6505   -5.1670 H         1 UNK         0.2977 
    105 H105       23.9642    0.0489   -7.6683 H         1 UNK         0.3127 
    106 H106       23.1898    2.5413   -8.7518 H         1 UNK         0.0770 
    107 H107       22.7996   -0.2888   -9.8717 H         1 UNK         0.0814 
    108 H108       21.9142    1.1401  -10.3853 H         1 UNK         0.0814 
    109 H109       21.7218    0.5409   -8.7473 H         1 UNK         0.0814 
    110 H110       25.7356    0.3432   -9.7673 H         1 UNK         0.2983 
    111 H111       26.2877    1.7575  -12.2926 H         1 UNK         0.0947 
    112 H112       27.7521   -0.5412  -10.8825 H         1 UNK         0.0806 
    113 H113       28.0698    0.0391  -12.5100 H         1 UNK         0.0806 
    114 H114       26.5343   -0.7257  -12.1450 H         1 UNK         0.0806 
    115 H115       26.8728    2.5234   -9.1110 H         1 UNK         0.3000 
    116 H116       28.1750    3.8048   -7.9381 H         1 UNK         0.0850 
    117 H117       29.5361    5.5947   -8.9772 H         1 UNK         0.0810 
    118 H118       27.9471    5.4982   -9.7173 H         1 UNK         0.0810 
    119 H119       29.3552    4.8622  -10.5620 H         1 UNK         0.0810 
    120 H120       30.3635    2.6867  -10.5388 H         1 UNK         0.3040 
    121 H121       32.5788    2.2154   -8.6486 H         1 UNK         0.0766 
    122 H122       33.8503    1.7218  -10.7328 H         1 UNK         0.0812 
    123 H123       33.0381    3.2739  -10.8464 H         1 UNK         0.0812 
    124 H124       32.3809    1.8711  -11.6885 H         1 UNK         0.0812 
    125 H125       30.8753    0.6725   -7.6009 H         1 UNK         0.3205 
    126 H126       31.3464   -2.1274   -8.5817 H         1 UNK         0.0754 
    127 H127       28.8205   -1.0364   -7.2414 H         1 UNK         0.0769 
    128 H128       29.1013   -2.6955   -7.7588 H         1 UNK         0.0769 
    129 H129       28.9769   -1.4183   -8.9544 H         1 UNK         0.0769 
    130 H130       33.1251   -0.7020   -6.8995 H         1 UNK         0.2981 
    131 H131       32.6792   -1.4185   -4.1571 H         1 UNK         0.0541 
    132 H132       33.6563   -3.4967   -6.7359 H         1 UNK         0.3459 
    133 H133       34.4059   -4.7033   -5.7205 H         1 UNK         0.3459 
    134 H134       35.3120   -0.5839   -5.4689 H         1 UNK         0.0612 
    135 H135       34.9778   -0.5852   -3.7594 H         1 UNK         0.0612 
    136 H136       33.4752    2.7778   -3.0566 H         1 UNK         0.0624 
    137 H137       34.4700    1.4456   -2.5235 H         1 UNK         0.0624 
@<TRIPOS>BOND
     1    1    2 1    
     2    1   72 1    
     3    1   73 1    
     4    1   74 1    
     5    2    3 2    
     6    2    4 am   BACKBONE|DICT|INTERRES
     7    4    5 1    
     8    4   75 1    
     9    5    6 1    
    10    5   35 1    
    11    5   76 1    
    12    6    7 1    
    13    6   77 1    
    14    6   78 1    
    15    7    8 1    
    16    8    9 1    
    17    8   79 1    
    18    8   80 1    
    19    9   10 ar   
    20    9   14 ar   
    21   10   11 ar   
    22   10   81 1    
    23   11   12 ar   
    24   11   71 1    
    25   12   13 ar   
    26   12   82 1    
    27   13   14 ar   
    28   13   15 1    
    29   14   83 1    
    30   15   16 1    
    31   15   84 1    
    32   15   85 1    
    33   16   17 1    
    34   17   18 1    
    35   17   86 1    
    36   17   87 1    
    37   18   19 1    
    38   18   37 1    
    39   18   88 1    
    40   19   20 am   BACKBONE|DICT|INTERRES
    41   19   89 1    
    42   20   21 2    
    43   20   22 1    
    44   22   23 1    
    45   22   24 1    
    46   22   90 1    
    47   23   91 1    
    48   23   92 1    
    49   23   93 1    
    50   24   25 am   BACKBONE|DICT|INTERRES
    51   24   94 1    
    52   25   26 2    
    53   25   27 1    
    54   27   28 1    
    55   27   29 1    
    56   27   95 1    
    57   28   96 1    
    58   28   97 1    
    59   28   98 1    
    60   29   30 am   BACKBONE|DICT|INTERRES
    61   29   99 1    
    62   30   31 2    
    63   30   32 1    
    64   32   33 1    
    65   32   34 1    
    66   32  100 1    
    67   33  101 1    
    68   33  102 1    
    69   33  103 1    
    70   34   35 am   BACKBONE|DICT|INTERRES
    71   34  104 1    
    72   35   36 2    
    73   37   38 2    
    74   37   39 am   BACKBONE|DICT|INTERRES
    75   39   40 1    
    76   39  105 1    
    77   40   41 1    
    78   40   42 1    
    79   40  106 1    
    80   41  107 1    
    81   41  108 1    
    82   41  109 1    
    83   42   43 2    
    84   42   44 am   BACKBONE|DICT|INTERRES
    85   44   45 1    
    86   44  110 1    
    87   45   46 1    
    88   45   47 1    
    89   45  111 1    
    90   46  112 1    
    91   46  113 1    
    92   46  114 1    
    93   47   48 2    
    94   47   49 am   BACKBONE|DICT|INTERRES
    95   49   50 1    
    96   49  115 1    
    97   50   51 1    
    98   50   52 1    
    99   50  116 1    
   100   51  117 1    
   101   51  118 1    
   102   51  119 1    
   103   52   53 2    
   104   52   54 am   BACKBONE|DICT|INTERRES
   105   54   55 1    
   106   54  120 1    
   107   55   56 1    
   108   55   57 1    
   109   55  121 1    
   110   56  122 1    
   111   56  123 1    
   112   56  124 1    
   113   57   58 2    
   114   57   59 am   BACKBONE|DICT|INTERRES
   115   59   60 1    
   116   59  125 1    
   117   60   61 1    
   118   60   62 1    
   119   60  126 1    
   120   61  127 1    
   121   61  128 1    
   122   61  129 1    
   123   62   63 2    
   124   62   64 am   BACKBONE|DICT|INTERRES
   125   64   65 1    
   126   64  130 1    
   127   65   66 1    
   128   65   69 1    
   129   65  131 1    
   130   66   67 am   BACKBONE|DICT|INTERRES
   131   66   68 2    
   132   67  132 1    
   133   67  133 1    
   134   69   70 1    
   135   69  134 1    
   136   69  135 1    
   137   70   71 1    
   138   71  136 1    
   139   71  137 1    
@<TRIPOS>SUBSTRUCTURE
     1 UNK         1 GROUP             0       ****    0 ROOT    
