@<TRIPOS>MOLECULE
3R137
137   139    1
SMALL
USER_CHARGES


@<TRIPOS>ATOM
      1 CA         24.1185    2.4607   -5.6848 C.3       0 UNK        -0.2020 
      2 C          23.7232    1.1167   -6.2795 C.2       0 UNK         0.4855 
      3 O          22.7812    1.0517   -7.0698 O.2       0 UNK        -0.5197 
      4 N          24.4417    0.0533   -5.9085 N.am      1 UNK        -0.4892 
      5 CA         24.1893   -1.3345   -6.3055 C.3       1 UNK         0.0835 
      6 C6         25.3552   -1.9146   -7.1567 C.3       12 UNK        -0.0855 
      7 S7         26.9996   -1.8043   -6.3692 S.3       12 UNK        -0.2931 
      8 C8         27.4476   -3.5588   -6.1896 C.3       12 UNK         0.0378 
      9 C9         28.8094   -3.6812   -5.5292 C.ar      12 UNK        -0.0802 
     10 C10        29.9736   -3.5592   -6.2896 C.ar      12 UNK        -0.0944 
     11 C11        31.2300   -3.5579   -5.6778 C.ar      12 UNK        -0.0787 
     12 C12        31.3163   -3.7210   -4.2915 C.ar      12 UNK        -0.0862 
     13 C13        30.1581   -3.8808   -3.5228 C.ar      12 UNK        -0.0733 
     14 C14        28.9090   -3.8686   -4.1499 C.ar      12 UNK        -0.0832 
     15 C15        30.2528   -4.0398   -2.0111 C.3       12 UNK         0.0240 
     16 S16        29.2754   -2.7878   -1.1151 S.3       12 UNK        -0.2522 
     17 C17        29.9605   -1.2319   -1.7821 C.3       12 UNK        -0.0967 
     18 CA         28.9883   -0.4965   -2.7489 C.3       5 UNK         0.0660 
     19 N          27.6975   -0.2362   -2.0933 N.am      5 UNK        -0.4015 
     20 C          26.5460    0.1559   -2.6528 C.2       4 UNK         0.4946 
     21 O          26.4052    0.4160   -3.8511 O.2       4 UNK        -0.5353 
     22 CA         25.3460    0.2524   -1.7027 C.3       4 UNK         0.0277 
     23 CB         24.2560    1.2080   -2.2209 C.3       4 UNK        -0.1981 
     24 N          24.7782   -1.0817   -1.5161 N.am      4 UNK        -0.4209 
     25 C          25.1566   -1.9368   -0.5551 C.2       3 UNK         0.4942 
     26 O          26.0053   -1.6603    0.2940 O.2       3 UNK        -0.5208 
     27 CA         24.4795   -3.3198   -0.5001 C.3       3 UNK         0.0250 
     28 CB         23.4439   -3.3622    0.6360 C.3       3 UNK        -0.1990 
     29 N          23.8243   -3.7033   -1.7520 N.am      3 UNK        -0.4232 
     30 C          24.4570   -4.2005   -2.8227 C.2       2 UNK         0.4993 
     31 O          25.6635   -4.4381   -2.8546 O.2       2 UNK        -0.5286 
     32 CA         23.6123   -4.4691   -4.0847 C.3       2 UNK         0.0209 
     33 CB         22.0903   -4.5487   -3.8212 C.3       2 UNK        -0.1931 
     34 N          23.9002   -3.4970   -5.1487 N.am      2 UNK        -0.4546 
     35 C          23.8223   -2.1605   -5.0527 C.2       1 UNK         0.5154 
     36 O          23.4408   -1.5837   -4.0296 O.2       1 UNK        -0.5181 
     37 C          29.6476    0.7687   -3.3538 C.2       5 UNK         0.5014 
     38 O          30.8222    1.0301   -3.0900 O.2       5 UNK        -0.5248 
     39 N          28.8838    1.5452   -4.1274 N.am      6 UNK        -0.4434 
     40 CA         29.2954    2.8093   -4.7358 C.3       6 UNK         0.0363 
     41 CB         28.3502    3.9227   -4.2542 C.3       6 UNK        -0.1936 
     42 C          29.2929    2.7477   -6.2694 C.2       6 UNK         0.5081 
     43 O          30.1288    3.4050   -6.8919 O.2       6 UNK        -0.5248 
     44 N          28.3454    1.9972   -6.8479 N.am      7 UNK        -0.4718 
     45 CA         28.0837    1.9438   -8.2869 C.3       7 UNK         0.0273 
     46 CB         26.5582    1.9174   -8.5091 C.3       7 UNK        -0.1935 
     47 C          28.8325    0.7724   -8.9474 C.2       7 UNK         0.5018 
     48 O          30.0072    0.5589   -8.6402 O.2       7 UNK        -0.5186 
     49 N          28.1636    0.0659   -9.8730 N.am      8 UNK        -0.4240 
     50 CA         28.6672   -1.0483  -10.6844 C.3       8 UNK         0.0235 
     51 CB         28.9414   -2.2820   -9.7985 C.3       8 UNK        -0.2000 
     52 C          29.8705   -0.6123  -11.5399 C.2       8 UNK         0.4941 
     53 O          29.6839    0.1419  -12.4949 O.2       8 UNK        -0.5273 
     54 N          31.0789   -1.0473  -11.1616 N.am      9 UNK        -0.4262 
     55 CA         32.3548   -0.6717  -11.7779 C.3       9 UNK         0.0264 
     56 CB         33.3522   -1.8262  -11.5679 C.3       9 UNK        -0.1955 
     57 C          32.9190    0.6642  -11.2446 C.2       9 UNK         0.5031 
     58 O          34.1039    0.9316  -11.4486 O.2       9 UNK        -0.5390 
     59 N          32.0807    1.4569  -10.5586 N.am      10 UNK        -0.4204 
     60 CA         32.3988    2.6521   -9.7699 C.3       10 UNK         0.0237 
     61 CB         33.0503    3.7624  -10.6229 C.3       10 UNK        -0.1985 
     62 C          33.2133    2.2571   -8.5280 C.2       10 UNK         0.4970 
     63 O          34.3216    2.7546   -8.3195 O.2       10 UNK        -0.4914 
     64 N          32.6457    1.3255   -7.7527 N.am      11 UNK        -0.4285 
     65 CA         33.2507    0.7204   -6.5580 C.3       11 UNK         0.1007 
     66 C          33.4446    1.6891   -5.3551 C.2       11 UNK         0.5703 
     67 N          32.8395    2.8712   -5.3440 N.am      11 UNK        -0.7361 
     68 O          34.1881    1.3715   -4.4298 O.2       11 UNK        -0.4986 
     69 C69        32.4927   -0.5665   -6.1379 C.3       12 UNK        -0.0947 
     70 S70        32.4756   -1.8205   -7.4665 S.3       12 UNK        -0.2240 
     71 C71        32.4897   -3.3760   -6.5157 C.3       12 UNK         0.0194 
     72 H72        24.1751    3.2184   -6.4656 H         1 UNK         0.0906 
     73 H73        23.3753    2.7801   -4.9550 H         1 UNK         0.0906 
     74 H74        25.0874    2.4151   -5.1883 H         1 UNK         0.0906 
     75 H75        25.1691    0.1560   -5.2006 H         1 UNK         0.3140 
     76 H76        23.2927   -1.3749   -6.9275 H         1 UNK         0.1085 
     77 H77        25.4152   -1.3557   -8.0914 H         1 UNK         0.0836 
     78 H78        25.1523   -2.9409   -7.4650 H         1 UNK         0.0836 
     79 H79        27.4617   -4.0389   -7.1691 H         1 UNK         0.0731 
     80 H80        26.6917   -4.0734   -5.5949 H         1 UNK         0.0731 
     81 H81        29.9018   -3.4307   -7.3577 H         1 UNK         0.1312 
     82 H82        32.2849   -3.7186   -3.8106 H         1 UNK         0.1406 
     83 H83        28.0125   -3.9603   -3.5533 H         1 UNK         0.1631 
     84 H84        31.2897   -3.9811   -1.6763 H         1 UNK         0.0717 
     85 H85        29.8941   -5.0322   -1.7351 H         1 UNK         0.0717 
     86 H86        30.2116   -0.5888   -0.9364 H         1 UNK         0.0934 
     87 H87        30.9081   -1.4481   -2.2795 H         1 UNK         0.0934 
     88 H88        28.7876   -1.1562   -3.5946 H         1 UNK         0.0739 
     89 H89        27.6731   -0.4667   -1.1089 H         1 UNK         0.3093 
     90 H90        25.6974    0.6506   -0.7481 H         1 UNK         0.0818 
     91 H91        23.4537    1.3214   -1.4919 H         1 UNK         0.0819 
     92 H92        23.8100    0.8554   -3.1497 H         1 UNK         0.0819 
     93 H93        24.6655    2.2008   -2.4108 H         1 UNK         0.0819 
     94 H94        24.1420   -1.3961   -2.2453 H         1 UNK         0.3041 
     95 H95        25.2587   -4.0518   -0.2758 H         1 UNK         0.0784 
     96 H96        23.9047   -3.1155    1.5937 H         1 UNK         0.0793 
     97 H97        22.6338   -2.6507    0.4716 H         1 UNK         0.0793 
     98 H98        23.0052   -4.3552    0.7367 H         1 UNK         0.0793 
     99 H99        22.8351   -3.5139   -1.8270 H         1 UNK         0.3024 
    100 H100       23.9317   -5.4453   -4.4542 H         1 UNK         0.1171 
    101 H101       21.5576   -4.8600   -4.7199 H         1 UNK         0.0786 
    102 H102       21.8617   -5.2834   -3.0477 H         1 UNK         0.0786 
    103 H103       21.6682   -3.5930   -3.5089 H         1 UNK         0.0786 
    104 H104       24.2290   -3.8929   -6.0173 H         1 UNK         0.2977 
    105 H105       27.9151    1.2513   -4.2486 H         1 UNK         0.3127 
    106 H106       30.3049    3.0726   -4.4185 H         1 UNK         0.0770 
    107 H107       27.3146    3.7254   -4.5338 H         1 UNK         0.0814 
    108 H108       28.6284    4.8850   -4.6864 H         1 UNK         0.0814 
    109 H109       28.3890    4.0317   -3.1703 H         1 UNK         0.0814 
    110 H110       27.7575    1.4184   -6.2669 H         1 UNK         0.2983 
    111 H111       28.4653    2.8532   -8.7563 H         1 UNK         0.0947 
    112 H112       26.3022    2.0071   -9.5655 H         1 UNK         0.0806 
    113 H113       26.0781    2.7550   -8.0038 H         1 UNK         0.0806 
    114 H114       26.1101    0.9992   -8.1295 H         1 UNK         0.0806 
    115 H115       27.2161    0.3499  -10.0767 H         1 UNK         0.3000 
    116 H116       27.8730   -1.3143  -11.3838 H         1 UNK         0.0850 
    117 H117       29.2880   -3.1295  -10.3914 H         1 UNK         0.0810 
    118 H118       28.0357   -2.5994   -9.2818 H         1 UNK         0.0810 
    119 H119       29.6941   -2.0714   -9.0404 H         1 UNK         0.0810 
    120 H120       31.1359   -1.6139  -10.3265 H         1 UNK         0.3040 
    121 H121       32.2047   -0.5471  -12.8523 H         1 UNK         0.0766 
    122 H122       34.2929   -1.6342  -12.0857 H         1 UNK         0.0812 
    123 H123       32.9602   -2.7662  -11.9565 H         1 UNK         0.0812 
    124 H124       33.5847   -1.9693  -10.5119 H         1 UNK         0.0812 
    125 H125       31.1524    1.0868  -10.3967 H         1 UNK         0.3205 
    126 H126       31.4467    3.0401   -9.4037 H         1 UNK         0.0754 
    127 H127       34.0463    3.4865  -10.9698 H         1 UNK         0.0769 
    128 H128       33.1559    4.6801  -10.0432 H         1 UNK         0.0769 
    129 H129       32.4433    3.9980  -11.4969 H         1 UNK         0.0769 
    130 H130       31.7198    0.9826   -7.9997 H         1 UNK         0.2981 
    131 H131       34.2595    0.4186   -6.8460 H         1 UNK         0.0541 
    132 H132       32.2056    3.1280   -6.0882 H         1 UNK         0.3459 
    133 H133       32.9877    3.4907   -4.5642 H         1 UNK         0.3459 
    134 H134       31.4603   -0.3340   -5.8692 H         1 UNK         0.0612 
    135 H135       32.9510   -1.0063   -5.2502 H         1 UNK         0.0612 
    136 H136       32.5728   -4.2108   -7.2126 H         1 UNK         0.0624 
    137 H137       33.3848   -3.4032   -5.8925 H         1 UNK         0.0624 
@<TRIPOS>BOND
     1    1    2 1    
     2    1   72 1    
     3    1   73 1    
     4    1   74 1    
     5    2    3 2    
     6    2    4 am   BACKBONE|DICT|INTERRES
     7    4    5 1    
     8    4   75 1    
     9    5    6 1    
    10    5   35 1    
    11    5   76 1    
    12    6    7 1    
    13    6   77 1    
    14    6   78 1    
    15    7    8 1    
    16    8    9 1    
    17    8   79 1    
    18    8   80 1    
    19    9   10 ar   
    20    9   14 ar   
    21   10   11 ar   
    22   10   81 1    
    23   11   12 ar   
    24   11   71 1    
    25   12   13 ar   
    26   12   82 1    
    27   13   14 ar   
    28   13   15 1    
    29   14   83 1    
    30   15   16 1    
    31   15   84 1    
    32   15   85 1    
    33   16   17 1    
    34   17   18 1    
    35   17   86 1    
    36   17   87 1    
    37   18   19 1    
    38   18   37 1    
    39   18   88 1    
    40   19   20 am   BACKBONE|DICT|INTERRES
    41   19   89 1    
    42   20   21 2    
    43   20   22 1    
    44   22   23 1    
    45   22   24 1    
    46   22   90 1    
    47   23   91 1    
    48   23   92 1    
    49   23   93 1    
    50   24   25 am   BACKBONE|DICT|INTERRES
    51   24   94 1    
    52   25   26 2    
    53   25   27 1    
    54   27   28 1    
    55   27   29 1    
    56   27   95 1    
    57   28   96 1    
    58   28   97 1    
    59   28   98 1    
    60   29   30 am   BACKBONE|DICT|INTERRES
    61   29   99 1    
    62   30   31 2    
    63   30   32 1    
    64   32   33 1    
    65   32   34 1    
    66   32  100 1    
    67   33  101 1    
    68   33  102 1    
    69   33  103 1    
    70   34   35 am   BACKBONE|DICT|INTERRES
    71   34  104 1    
    72   35   36 2    
    73   37   38 2    
    74   37   39 am   BACKBONE|DICT|INTERRES
    75   39   40 1    
    76   39  105 1    
    77   40   41 1    
    78   40   42 1    
    79   40  106 1    
    80   41  107 1    
    81   41  108 1    
    82   41  109 1    
    83   42   43 2    
    84   42   44 am   BACKBONE|DICT|INTERRES
    85   44   45 1    
    86   44  110 1    
    87   45   46 1    
    88   45   47 1    
    89   45  111 1    
    90   46  112 1    
    91   46  113 1    
    92   46  114 1    
    93   47   48 2    
    94   47   49 am   BACKBONE|DICT|INTERRES
    95   49   50 1    
    96   49  115 1    
    97   50   51 1    
    98   50   52 1    
    99   50  116 1    
   100   51  117 1    
   101   51  118 1    
   102   51  119 1    
   103   52   53 2    
   104   52   54 am   BACKBONE|DICT|INTERRES
   105   54   55 1    
   106   54  120 1    
   107   55   56 1    
   108   55   57 1    
   109   55  121 1    
   110   56  122 1    
   111   56  123 1    
   112   56  124 1    
   113   57   58 2    
   114   57   59 am   BACKBONE|DICT|INTERRES
   115   59   60 1    
   116   59  125 1    
   117   60   61 1    
   118   60   62 1    
   119   60  126 1    
   120   61  127 1    
   121   61  128 1    
   122   61  129 1    
   123   62   63 2    
   124   62   64 am   BACKBONE|DICT|INTERRES
   125   64   65 1    
   126   64  130 1    
   127   65   66 1    
   128   65   69 1    
   129   65  131 1    
   130   66   67 am   BACKBONE|DICT|INTERRES
   131   66   68 2    
   132   67  132 1    
   133   67  133 1    
   134   69   70 1    
   135   69  134 1    
   136   69  135 1    
   137   70   71 1    
   138   71  136 1    
   139   71  137 1    
@<TRIPOS>SUBSTRUCTURE
     1 UNK         1 GROUP             0       ****    0 ROOT    
