@<TRIPOS>MOLECULE
3R137
137   139    1
SMALL
USER_CHARGES


@<TRIPOS>ATOM
      1 CA         25.8106   -1.2681    1.6353 C.3       0 UNK        -0.2020 
      2 C          25.6080   -2.6527    1.0228 C.2       0 UNK         0.4855 
      3 O          24.8937   -3.4667    1.6052 O.2       0 UNK        -0.5197 
      4 N          26.2169   -2.9821   -0.1258 N.am      1 UNK        -0.4892 
      5 CA         27.0470   -2.1258   -0.9849 C.3       1 UNK         0.0835 
      6 C6         27.7475   -2.9512   -2.0940 C.3       12 UNK        -0.0855 
      7 S7         28.8992   -4.1846   -1.3977 S.3       12 UNK        -0.2931 
      8 C8         30.5276   -3.5537   -1.9484 C.3       12 UNK         0.0378 
      9 C9         30.8867   -3.8000   -3.4185 C.ar      12 UNK        -0.0802 
     10 C10        32.0553   -3.2171   -3.9249 C.ar      12 UNK        -0.0944 
     11 C11        32.4568   -3.4445   -5.2454 C.ar      12 UNK        -0.0787 
     12 C12        31.6649   -4.2398   -6.0771 C.ar      12 UNK        -0.0862 
     13 C13        30.4960   -4.8292   -5.5916 C.ar      12 UNK        -0.0733 
     14 C14        30.1201   -4.6163   -4.2622 C.ar      12 UNK        -0.0832 
     15 C15        29.6649   -5.7307   -6.4942 C.3       12 UNK         0.0240 
     16 S16        28.5733   -4.7829   -7.6002 S.3       12 UNK        -0.2522 
     17 C17        27.3064   -4.1765   -6.4323 C.3       12 UNK        -0.0967 
     18 CA         26.6623   -2.8238   -6.8486 C.3       5 UNK         0.0660 
     19 N          25.5703   -2.4142   -5.9615 N.am      5 UNK        -0.4015 
     20 C          24.4033   -3.0711   -5.8666 C.2       4 UNK         0.4946 
     21 O          24.1251   -4.0666   -6.5369 O.2       4 UNK        -0.5353 
     22 CA         23.3601   -2.5657   -4.8540 C.3       4 UNK         0.0277 
     23 CB         23.4355   -3.3895   -3.5580 C.3       4 UNK        -0.1981 
     24 N          23.4816   -1.1403   -4.5439 N.am      4 UNK        -0.4209 
     25 C          23.1602   -0.1609   -5.4038 C.2       3 UNK         0.4942 
     26 O          22.6996   -0.3705   -6.5266 O.2       3 UNK        -0.5208 
     27 CA         23.3816    1.2988   -4.9623 C.3       3 UNK         0.0250 
     28 CB         22.0373    1.9668   -4.6288 C.3       3 UNK        -0.1990 
     29 N          24.2931    1.4803   -3.8291 N.am      3 UNK        -0.4232 
     30 C          25.5763    1.1004   -3.7798 C.2       2 UNK         0.4993 
     31 O          26.1500    0.5134   -4.7001 O.2       2 UNK        -0.5286 
     32 CA         26.3456    1.3764   -2.4720 C.3       2 UNK         0.0209 
     33 CB         25.5305    2.1431   -1.4043 C.3       2 UNK        -0.1931 
     34 N          26.8978    0.1462   -1.8887 N.am      2 UNK        -0.4546 
     35 C          26.2241   -0.9794   -1.6090 C.2       1 UNK         0.5154 
     36 O          25.0204   -1.1344   -1.8324 O.2       1 UNK        -0.5181 
     37 C          27.6944   -1.6925   -6.9712 C.2       5 UNK         0.5014 
     38 O          27.9102   -1.1952   -8.0766 O.2       5 UNK        -0.5248 
     39 N          28.3138   -1.3159   -5.8421 N.am      6 UNK        -0.4434 
     40 CA         29.4601   -0.4028   -5.7414 C.3       6 UNK         0.0363 
     41 CB         29.7644   -0.1212   -4.2624 C.3       6 UNK        -0.1936 
     42 C          29.3235    0.9251   -6.5024 C.2       6 UNK         0.5081 
     43 O          30.2873    1.3522   -7.1354 O.2       6 UNK        -0.5248 
     44 N          28.1372    1.5430   -6.4489 N.am      7 UNK        -0.4718 
     45 CA         27.8364    2.8020   -7.1366 C.3       7 UNK         0.0273 
     46 CB         26.5196    3.3790   -6.5968 C.3       7 UNK        -0.1935 
     47 C          27.7727    2.6640   -8.6680 C.2       7 UNK         0.5018 
     48 O          28.1205    3.6142   -9.3691 O.2       7 UNK        -0.5186 
     49 N          27.3438    1.4932   -9.1592 N.am      8 UNK        -0.4240 
     50 CA         27.3014    1.1617  -10.5853 C.3       8 UNK         0.0235 
     51 CB         26.2217    0.0962  -10.8376 C.3       8 UNK        -0.2000 
     52 C          28.6723    0.6819  -11.0850 C.2       8 UNK         0.4941 
     53 O          29.0753    1.0408  -12.1917 O.2       8 UNK        -0.5273 
     54 N          29.3720   -0.0982  -10.2495 N.am      9 UNK        -0.4262 
     55 CA         30.7303   -0.5925  -10.4873 C.3       9 UNK         0.0264 
     56 CB         31.0149   -1.7334   -9.4971 C.3       9 UNK        -0.1955 
     57 C          31.8168    0.4984  -10.3912 C.2       9 UNK         0.5031 
     58 O          32.9232    0.2785  -10.8863 O.2       9 UNK        -0.5390 
     59 N          31.4853    1.6365   -9.7623 N.am      10 UNK        -0.4204 
     60 CA         32.3407    2.7909   -9.4611 C.3       10 UNK         0.0237 
     61 CB         32.8586    3.4642  -10.7505 C.3       10 UNK        -0.1985 
     62 C          33.4560    2.4444   -8.4556 C.2       10 UNK         0.4970 
     63 O          34.5945    2.8911   -8.6110 O.2       10 UNK        -0.4914 
     64 N          33.0992    1.6495   -7.4417 N.am      11 UNK        -0.4285 
     65 CA         33.9732    1.2420   -6.3358 C.3       11 UNK         0.1007 
     66 C          34.1254    2.3666   -5.2774 C.2       11 UNK         0.5703 
     67 N          35.2524    2.4090   -4.5797 N.am      11 UNK        -0.7361 
     68 O          33.2262    3.1762   -5.0564 O.2       11 UNK        -0.4986 
     69 C69        33.4767   -0.0748   -5.6864 C.3       12 UNK        -0.0947 
     70 S70        33.5259   -1.4618   -6.8669 S.3       12 UNK        -0.2240 
     71 C71        33.7734   -2.8878   -5.7679 C.3       12 UNK         0.0194 
     72 H72        26.8529   -0.9551    1.5991 H         1 UNK         0.0906 
     73 H73        25.1998   -0.5276    1.1195 H         1 UNK         0.0906 
     74 H74        25.5108   -1.2715    2.6831 H         1 UNK         0.0906 
     75 H75        26.0649   -3.9121   -0.4878 H         1 UNK         0.3140 
     76 H76        27.8234   -1.6798   -0.3603 H         1 UNK         0.1085 
     77 H77        27.0123   -3.4747   -2.7085 H         1 UNK         0.0836 
     78 H78        28.2994   -2.3017   -2.7738 H         1 UNK         0.0836 
     79 H79        31.2920   -4.0304   -1.3332 H         1 UNK         0.0731 
     80 H80        30.5847   -2.4864   -1.7298 H         1 UNK         0.0731 
     81 H81        32.6701   -2.6037   -3.2802 H         1 UNK         0.1312 
     82 H82        31.9693   -4.4153   -7.1001 H         1 UNK         0.1406 
     83 H83        29.2309   -5.1048   -3.8917 H         1 UNK         0.1631 
     84 H84        29.0675   -6.4274   -5.9039 H         1 UNK         0.0717 
     85 H85        30.3300   -6.3449   -7.1032 H         1 UNK         0.0717 
     86 H86        26.5477   -4.9567   -6.3670 H         1 UNK         0.0934 
     87 H87        27.7238   -4.0956   -5.4302 H         1 UNK         0.0934 
     88 H88        26.2303   -2.9542   -7.8436 H         1 UNK         0.0739 
     89 H89        25.7009   -1.5508   -5.4451 H         1 UNK         0.3093 
     90 H90        22.3736   -2.7272   -5.2945 H         1 UNK         0.0818 
     91 H91        22.7142   -3.0408   -2.8188 H         1 UNK         0.0819 
     92 H92        23.2168   -4.4401   -3.7538 H         1 UNK         0.0819 
     93 H93        24.4267   -3.3468   -3.1067 H         1 UNK         0.0819 
     94 H94        23.8679   -0.9005   -3.6366 H         1 UNK         0.3041 
     95 H95        23.8140    1.8209   -5.8163 H         1 UNK         0.0784 
     96 H96        21.3401    1.8835   -5.4640 H         1 UNK         0.0793 
     97 H97        21.5625    1.5061   -3.7615 H         1 UNK         0.0793 
     98 H98        22.1616    3.0297   -4.4207 H         1 UNK         0.0793 
     99 H99        23.9028    1.9223   -3.0096 H         1 UNK         0.3024 
    100 H100       27.1929    2.0032   -2.7554 H         1 UNK         0.1171 
    101 H101       25.1785    3.1036   -1.7835 H         1 UNK         0.0786 
    102 H102       24.6638    1.5770   -1.0600 H         1 UNK         0.0786 
    103 H103       26.1444    2.3588   -0.5296 H         1 UNK         0.0786 
    104 H104       27.8867    0.1762   -1.6840 H         1 UNK         0.2977 
    105 H105       28.0455   -1.7716   -4.9855 H         1 UNK         0.3127 
    106 H106       30.3165   -0.9291   -6.1672 H         1 UNK         0.0770 
    107 H107       28.8925    0.2790   -3.7493 H         1 UNK         0.0814 
    108 H108       30.5616    0.6148   -4.1517 H         1 UNK         0.0814 
    109 H109       30.0870   -1.0218   -3.7439 H         1 UNK         0.0814 
    110 H110       27.3951    1.1199   -5.8935 H         1 UNK         0.2983 
    111 H111       28.6372    3.5086   -6.9063 H         1 UNK         0.0947 
    112 H112       26.2980    4.3429   -7.0572 H         1 UNK         0.0806 
    113 H113       26.5647    3.5378   -5.5195 H         1 UNK         0.0806 
    114 H114       25.6808    2.7169   -6.8081 H         1 UNK         0.0806 
    115 H115       27.1605    0.7359   -8.5114 H         1 UNK         0.3000 
    116 H116       27.0314    2.0560  -11.1516 H         1 UNK         0.0850 
    117 H117       26.1532   -0.1430  -11.8996 H         1 UNK         0.0810 
    118 H118       25.2391    0.4458  -10.5203 H         1 UNK         0.0810 
    119 H119       26.4331   -0.8334  -10.3081 H         1 UNK         0.0810 
    120 H120       28.9218   -0.4024   -9.3873 H         1 UNK         0.3040 
    121 H121       30.7695   -1.0005  -11.4994 H         1 UNK         0.0766 
    122 H122       30.9515   -1.3904   -8.4644 H         1 UNK         0.0812 
    123 H123       32.0148   -2.1435   -9.6448 H         1 UNK         0.0812 
    124 H124       30.3058   -2.5528   -9.6176 H         1 UNK         0.0812 
    125 H125       30.5773    1.6542   -9.3147 H         1 UNK         0.3205 
    126 H126       31.6971    3.5116   -8.9543 H         1 UNK         0.0754 
    127 H127       33.3685    4.4010  -10.5226 H         1 UNK         0.0769 
    128 H128       32.0397    3.6985  -11.4308 H         1 UNK         0.0769 
    129 H129       33.5682    2.8314  -11.2840 H         1 UNK         0.0769 
    130 H130       32.1181    1.3967   -7.3512 H         1 UNK         0.2981 
    131 H131       34.9657    1.0540   -6.7510 H         1 UNK         0.0541 
    132 H132       35.9937    1.7457   -4.7439 H         1 UNK         0.3459 
    133 H133       35.3668    3.1238   -3.8782 H         1 UNK         0.3459 
    134 H134       32.4585    0.0326   -5.3165 H         1 UNK         0.0612 
    135 H135       34.0948   -0.3275   -4.8233 H         1 UNK         0.0612 
    136 H136       34.4417   -2.6232   -4.9474 H         1 UNK         0.0624 
    137 H137       34.2880   -3.6677   -6.3311 H         1 UNK         0.0624 
@<TRIPOS>BOND
     1    1    2 1    
     2    1   72 1    
     3    1   73 1    
     4    1   74 1    
     5    2    3 2    
     6    2    4 am   BACKBONE|DICT|INTERRES
     7    4    5 1    
     8    4   75 1    
     9    5    6 1    
    10    5   35 1    
    11    5   76 1    
    12    6    7 1    
    13    6   77 1    
    14    6   78 1    
    15    7    8 1    
    16    8    9 1    
    17    8   79 1    
    18    8   80 1    
    19    9   10 ar   
    20    9   14 ar   
    21   10   11 ar   
    22   10   81 1    
    23   11   12 ar   
    24   11   71 1    
    25   12   13 ar   
    26   12   82 1    
    27   13   14 ar   
    28   13   15 1    
    29   14   83 1    
    30   15   16 1    
    31   15   84 1    
    32   15   85 1    
    33   16   17 1    
    34   17   18 1    
    35   17   86 1    
    36   17   87 1    
    37   18   19 1    
    38   18   37 1    
    39   18   88 1    
    40   19   20 am   BACKBONE|DICT|INTERRES
    41   19   89 1    
    42   20   21 2    
    43   20   22 1    
    44   22   23 1    
    45   22   24 1    
    46   22   90 1    
    47   23   91 1    
    48   23   92 1    
    49   23   93 1    
    50   24   25 am   BACKBONE|DICT|INTERRES
    51   24   94 1    
    52   25   26 2    
    53   25   27 1    
    54   27   28 1    
    55   27   29 1    
    56   27   95 1    
    57   28   96 1    
    58   28   97 1    
    59   28   98 1    
    60   29   30 am   BACKBONE|DICT|INTERRES
    61   29   99 1    
    62   30   31 2    
    63   30   32 1    
    64   32   33 1    
    65   32   34 1    
    66   32  100 1    
    67   33  101 1    
    68   33  102 1    
    69   33  103 1    
    70   34   35 am   BACKBONE|DICT|INTERRES
    71   34  104 1    
    72   35   36 2    
    73   37   38 2    
    74   37   39 am   BACKBONE|DICT|INTERRES
    75   39   40 1    
    76   39  105 1    
    77   40   41 1    
    78   40   42 1    
    79   40  106 1    
    80   41  107 1    
    81   41  108 1    
    82   41  109 1    
    83   42   43 2    
    84   42   44 am   BACKBONE|DICT|INTERRES
    85   44   45 1    
    86   44  110 1    
    87   45   46 1    
    88   45   47 1    
    89   45  111 1    
    90   46  112 1    
    91   46  113 1    
    92   46  114 1    
    93   47   48 2    
    94   47   49 am   BACKBONE|DICT|INTERRES
    95   49   50 1    
    96   49  115 1    
    97   50   51 1    
    98   50   52 1    
    99   50  116 1    
   100   51  117 1    
   101   51  118 1    
   102   51  119 1    
   103   52   53 2    
   104   52   54 am   BACKBONE|DICT|INTERRES
   105   54   55 1    
   106   54  120 1    
   107   55   56 1    
   108   55   57 1    
   109   55  121 1    
   110   56  122 1    
   111   56  123 1    
   112   56  124 1    
   113   57   58 2    
   114   57   59 am   BACKBONE|DICT|INTERRES
   115   59   60 1    
   116   59  125 1    
   117   60   61 1    
   118   60   62 1    
   119   60  126 1    
   120   61  127 1    
   121   61  128 1    
   122   61  129 1    
   123   62   63 2    
   124   62   64 am   BACKBONE|DICT|INTERRES
   125   64   65 1    
   126   64  130 1    
   127   65   66 1    
   128   65   69 1    
   129   65  131 1    
   130   66   67 am   BACKBONE|DICT|INTERRES
   131   66   68 2    
   132   67  132 1    
   133   67  133 1    
   134   69   70 1    
   135   69  134 1    
   136   69  135 1    
   137   70   71 1    
   138   71  136 1    
   139   71  137 1    
@<TRIPOS>SUBSTRUCTURE
     1 UNK         1 GROUP             0       ****    0 ROOT    
