@<TRIPOS>MOLECULE
3R137
137   139    1
SMALL
USER_CHARGES


@<TRIPOS>ATOM
      1 CA         30.7625   -4.6849   -0.8575 C.3       0 UNK        -0.2020 
      2 C          29.8068   -3.9734    0.0880 C.2       0 UNK         0.4855 
      3 O          30.1992   -3.6225    1.2012 O.2       0 UNK        -0.5197 
      4 N          28.5548   -3.7731   -0.3405 N.am      1 UNK        -0.4892 
      5 CA         27.4918   -3.1475    0.4506 C.3       1 UNK         0.0835 
      6 C6         27.7051   -1.6269    0.7251 C.3       12 UNK        -0.0855 
      7 S7         27.3981   -0.4817   -0.6719 S.3       12 UNK        -0.2931 
      8 C8         29.0663    0.1202   -1.1218 C.3       12 UNK         0.0378 
      9 C9         29.8175   -0.6811   -2.1901 C.ar      12 UNK        -0.0802 
     10 C10        31.1070   -0.2658   -2.5353 C.ar      12 UNK        -0.0944 
     11 C11        31.8477   -0.9529   -3.5006 C.ar      12 UNK        -0.0787 
     12 C12        31.3025   -2.0831   -4.1154 C.ar      12 UNK        -0.0862 
     13 C13        30.0202   -2.5211   -3.7780 C.ar      12 UNK        -0.0733 
     14 C14        29.2758   -1.7985   -2.8397 C.ar      12 UNK        -0.0832 
     15 C15        29.4744   -3.8181   -4.3627 C.3       12 UNK         0.0240 
     16 S16        27.9055   -3.6032   -5.2521 S.3       12 UNK        -0.2522 
     17 C17        28.4699   -3.0709   -6.9029 C.3       12 UNK        -0.0967 
     18 CA         27.6563   -1.8953   -7.5006 C.3       5 UNK         0.0660 
     19 N          26.2087   -2.0664   -7.3360 N.am      5 UNK        -0.4015 
     20 C          25.2756   -1.3722   -7.9988 C.2       4 UNK         0.4946 
     21 O          25.5293   -0.5030   -8.8324 O.2       4 UNK        -0.5353 
     22 CA         23.8116   -1.6813   -7.6485 C.3       4 UNK         0.0277 
     23 CB         23.4029   -3.0739   -8.1574 C.3       4 UNK        -0.1981 
     24 N          23.5190   -1.5690   -6.2161 N.am      4 UNK        -0.4209 
     25 C          23.6304   -0.4381   -5.5042 C.2       3 UNK         0.4942 
     26 O          24.0594    0.6193   -5.9608 O.2       3 UNK        -0.5208 
     27 CA         23.1839   -0.4792   -4.0342 C.3       3 UNK         0.0250 
     28 CB         21.6902   -0.1345   -3.9197 C.3       3 UNK        -0.1990 
     29 N          23.4472   -1.7488   -3.3512 N.am      3 UNK        -0.4232 
     30 C          24.6721   -2.2349   -3.1167 C.2       2 UNK         0.4993 
     31 O          25.7075   -1.7319   -3.5610 O.2       2 UNK        -0.5286 
     32 CA         24.7559   -3.4896   -2.2385 C.3       2 UNK         0.0209 
     33 CB         24.7560   -4.7644   -3.0978 C.3       2 UNK        -0.1931 
     34 N          26.0018   -3.4086   -1.4829 N.am      2 UNK        -0.4546 
     35 C          26.1105   -3.4751   -0.1491 C.2       1 UNK         0.5154 
     36 O          25.1840   -3.7927    0.5985 O.2       1 UNK        -0.5181 
     37 C          28.1531   -0.5259   -7.0009 C.2       5 UNK         0.5014 
     38 O          29.0716    0.0313   -7.6077 O.2       5 UNK        -0.5248 
     39 N          27.5173    0.0047   -5.9460 N.am      6 UNK        -0.4434 
     40 CA         27.7606    1.3478   -5.4240 C.3       6 UNK         0.0363 
     41 CB         27.0378    1.5155   -4.0793 C.3       6 UNK        -0.1936 
     42 C          27.3351    2.4408   -6.4188 C.2       6 UNK         0.5081 
     43 O          28.1271    3.3401   -6.6987 O.2       6 UNK        -0.5248 
     44 N          26.1107    2.3330   -6.9571 N.am      7 UNK        -0.4718 
     45 CA         25.5465    3.2598   -7.9440 C.3       7 UNK         0.0273 
     46 CB         24.0478    2.9743   -8.1294 C.3       7 UNK        -0.1935 
     47 C          26.2729    3.2157   -9.2968 C.2       7 UNK         0.5018 
     48 O          26.4847    4.2676   -9.9013 O.2       7 UNK        -0.5186 
     49 N          26.6628    2.0106   -9.7361 N.am      8 UNK        -0.4240 
     50 CA         27.4667    1.7907  -10.9416 C.3       8 UNK         0.0235 
     51 CB         27.4140    0.3010  -11.3190 C.3       8 UNK        -0.2000 
     52 C          28.9312    2.2438  -10.7973 C.2       8 UNK         0.4941 
     53 O          29.5981    2.4143  -11.8186 O.2       8 UNK        -0.5273 
     54 N          29.4051    2.4017   -9.5503 N.am      9 UNK        -0.4262 
     55 CA         30.7878    2.6779   -9.1464 C.3       9 UNK         0.0264 
     56 CB         31.2232    4.0925   -9.5834 C.3       9 UNK        -0.1955 
     57 C          31.7431    1.5683   -9.6235 C.2       9 UNK         0.5031 
     58 O          32.7805    1.8508  -10.2256 O.2       9 UNK        -0.5390 
     59 N          31.3560    0.3138   -9.3552 N.am      10 UNK        -0.4204 
     60 CA         32.0477   -0.8997   -9.8059 C.3       10 UNK         0.0237 
     61 CB         31.0388   -2.0609   -9.8123 C.3       10 UNK        -0.1985 
     62 C          33.3028   -1.2577   -8.9825 C.2       10 UNK         0.4970 
     63 O          33.9175   -2.2916   -9.2486 O.2       10 UNK        -0.4914 
     64 N          33.6405   -0.4284   -7.9889 N.am      11 UNK        -0.4285 
     65 CA         34.7667   -0.5753   -7.0583 C.3       11 UNK         0.1007 
     66 C          36.1504   -0.6542   -7.7603 C.2       11 UNK         0.5703 
     67 N          37.0639   -1.4647   -7.2429 N.am      11 UNK        -0.7361 
     68 O          36.4167    0.0447   -8.7366 O.2       11 UNK        -0.4986 
     69 C69        34.7635    0.5570   -5.9953 C.3       12 UNK        -0.0947 
     70 S70        33.1408    0.7737   -5.1913 S.3       12 UNK        -0.2240 
     71 C71        33.2389   -0.4773   -3.8792 C.3       12 UNK         0.0194 
     72 H72        31.3103   -3.9567   -1.4554 H         1 UNK         0.0906 
     73 H73        31.4856   -5.2740   -0.2938 H         1 UNK         0.0906 
     74 H74        30.2349   -5.3620   -1.5278 H         1 UNK         0.0906 
     75 H75        28.2645   -4.1584   -1.2277 H         1 UNK         0.3140 
     76 H76        27.5082   -3.6471    1.4224 H         1 UNK         0.1085 
     77 H77        27.0314   -1.3222    1.5279 H         1 UNK         0.0836 
     78 H78        28.7041   -1.4506    1.1240 H         1 UNK         0.0836 
     79 H79        28.9559    1.1418   -1.4881 H         1 UNK         0.0731 
     80 H80        29.6802    0.1890   -0.2228 H         1 UNK         0.0731 
     81 H81        31.5362    0.6040   -2.0564 H         1 UNK         0.1312 
     82 H82        31.8847   -2.6281   -4.8459 H         1 UNK         0.1406 
     83 H83        28.2760   -2.1271   -2.6119 H         1 UNK         0.1631 
     84 H84        29.3021   -4.5196   -3.5473 H         1 UNK         0.0717 
     85 H85        30.2027   -4.2964   -5.0195 H         1 UNK         0.0717 
     86 H86        29.5341   -2.8310   -6.8682 H         1 UNK         0.0934 
     87 H87        28.3889   -3.9349   -7.5643 H         1 UNK         0.0934 
     88 H88        27.8474   -1.8996   -8.5760 H         1 UNK         0.0739 
     89 H89        25.9233   -2.7350   -6.6346 H         1 UNK         0.3093 
     90 H90        23.1952   -0.9420   -8.1649 H         1 UNK         0.0818 
     91 H91        22.3341   -3.2447   -8.0264 H         1 UNK         0.0819 
     92 H92        23.6159   -3.1776   -9.2224 H         1 UNK         0.0819 
     93 H93        23.9353   -3.8723   -7.6392 H         1 UNK         0.0819 
     94 H94        23.1614   -2.3911   -5.7524 H         1 UNK         0.3041 
     95 H95        23.7483    0.2943   -3.5083 H         1 UNK         0.0784 
     96 H96        21.4723    0.8196   -4.4022 H         1 UNK         0.0793 
     97 H97        21.0623   -0.8900   -4.3937 H         1 UNK         0.0793 
     98 H98        21.3815   -0.0448   -2.8779 H         1 UNK         0.0793 
     99 H99        22.6461   -2.2291   -2.9665 H         1 UNK         0.3024 
    100 H100       23.8972   -3.5063   -1.5631 H         1 UNK         0.1171 
    101 H101       23.8351   -4.8478   -3.6761 H         1 UNK         0.0786 
    102 H102       24.8308   -5.6573   -2.4770 H         1 UNK         0.0786 
    103 H103       25.5873   -4.7789   -3.8026 H         1 UNK         0.0786 
    104 H104       26.7556   -2.9879   -2.0072 H         1 UNK         0.2977 
    105 H105       26.7977   -0.5394   -5.4871 H         1 UNK         0.3127 
    106 H106       28.8343    1.4453   -5.2481 H         1 UNK         0.0770 
    107 H107       25.9540    1.4809   -4.1898 H         1 UNK         0.0814 
    108 H108       27.2906    2.4697   -3.6160 H         1 UNK         0.0814 
    109 H109       27.3205    0.7273   -3.3835 H         1 UNK         0.0814 
    110 H110       25.4985    1.5795   -6.6479 H         1 UNK         0.2983 
    111 H111       25.6536    4.2719   -7.5477 H         1 UNK         0.0947 
    112 H112       23.6045    3.6579   -8.8547 H         1 UNK         0.0806 
    113 H113       23.5031    3.0969   -7.1931 H         1 UNK         0.0806 
    114 H114       23.8733    1.9581   -8.4860 H         1 UNK         0.0806 
    115 H115       26.3758    1.1820   -9.2189 H         1 UNK         0.3000 
    116 H116       27.0241    2.3674  -11.7566 H         1 UNK         0.0850 
    117 H117       27.9733    0.1076  -12.2353 H         1 UNK         0.0810 
    118 H118       26.3892   -0.0296  -11.4891 H         1 UNK         0.0810 
    119 H119       27.8428   -0.3258  -10.5363 H         1 UNK         0.0810 
    120 H120       28.7673    2.2199   -8.7855 H         1 UNK         0.3040 
    121 H121       30.7993    2.6496   -8.0554 H         1 UNK         0.0766 
    122 H122       32.2109    4.3342   -9.1892 H         1 UNK         0.0812 
    123 H123       30.5318    4.8498   -9.2140 H         1 UNK         0.0812 
    124 H124       31.2754    4.1858  -10.6685 H         1 UNK         0.0812 
    125 H125       30.5075    0.1822   -8.8048 H         1 UNK         0.3205 
    126 H126       32.3808   -0.7391  -10.8334 H         1 UNK         0.0754 
    127 H127       31.4825   -2.9671  -10.2267 H         1 UNK         0.0769 
    128 H128       30.1635   -1.8250  -10.4180 H         1 UNK         0.0769 
    129 H129       30.6980   -2.2959   -8.8051 H         1 UNK         0.0769 
    130 H130       33.0753    0.3947   -7.8515 H         1 UNK         0.2981 
    131 H131       34.6063   -1.5233   -6.5418 H         1 UNK         0.0541 
    132 H132       36.8624   -2.0320   -6.4342 H         1 UNK         0.3459 
    133 H133       37.9731   -1.5158   -7.6754 H         1 UNK         0.3459 
    134 H134       35.0282    1.5106   -6.4564 H         1 UNK         0.0612 
    135 H135       35.5174    0.3704   -5.2282 H         1 UNK         0.0612 
    136 H136       33.7504   -0.0552   -3.0128 H         1 UNK         0.0624 
    137 H137       33.8406   -1.3243   -4.2118 H         1 UNK         0.0624 
@<TRIPOS>BOND
     1    1    2 1    
     2    1   72 1    
     3    1   73 1    
     4    1   74 1    
     5    2    3 2    
     6    2    4 am   BACKBONE|DICT|INTERRES
     7    4    5 1    
     8    4   75 1    
     9    5    6 1    
    10    5   35 1    
    11    5   76 1    
    12    6    7 1    
    13    6   77 1    
    14    6   78 1    
    15    7    8 1    
    16    8    9 1    
    17    8   79 1    
    18    8   80 1    
    19    9   10 ar   
    20    9   14 ar   
    21   10   11 ar   
    22   10   81 1    
    23   11   12 ar   
    24   11   71 1    
    25   12   13 ar   
    26   12   82 1    
    27   13   14 ar   
    28   13   15 1    
    29   14   83 1    
    30   15   16 1    
    31   15   84 1    
    32   15   85 1    
    33   16   17 1    
    34   17   18 1    
    35   17   86 1    
    36   17   87 1    
    37   18   19 1    
    38   18   37 1    
    39   18   88 1    
    40   19   20 am   BACKBONE|DICT|INTERRES
    41   19   89 1    
    42   20   21 2    
    43   20   22 1    
    44   22   23 1    
    45   22   24 1    
    46   22   90 1    
    47   23   91 1    
    48   23   92 1    
    49   23   93 1    
    50   24   25 am   BACKBONE|DICT|INTERRES
    51   24   94 1    
    52   25   26 2    
    53   25   27 1    
    54   27   28 1    
    55   27   29 1    
    56   27   95 1    
    57   28   96 1    
    58   28   97 1    
    59   28   98 1    
    60   29   30 am   BACKBONE|DICT|INTERRES
    61   29   99 1    
    62   30   31 2    
    63   30   32 1    
    64   32   33 1    
    65   32   34 1    
    66   32  100 1    
    67   33  101 1    
    68   33  102 1    
    69   33  103 1    
    70   34   35 am   BACKBONE|DICT|INTERRES
    71   34  104 1    
    72   35   36 2    
    73   37   38 2    
    74   37   39 am   BACKBONE|DICT|INTERRES
    75   39   40 1    
    76   39  105 1    
    77   40   41 1    
    78   40   42 1    
    79   40  106 1    
    80   41  107 1    
    81   41  108 1    
    82   41  109 1    
    83   42   43 2    
    84   42   44 am   BACKBONE|DICT|INTERRES
    85   44   45 1    
    86   44  110 1    
    87   45   46 1    
    88   45   47 1    
    89   45  111 1    
    90   46  112 1    
    91   46  113 1    
    92   46  114 1    
    93   47   48 2    
    94   47   49 am   BACKBONE|DICT|INTERRES
    95   49   50 1    
    96   49  115 1    
    97   50   51 1    
    98   50   52 1    
    99   50  116 1    
   100   51  117 1    
   101   51  118 1    
   102   51  119 1    
   103   52   53 2    
   104   52   54 am   BACKBONE|DICT|INTERRES
   105   54   55 1    
   106   54  120 1    
   107   55   56 1    
   108   55   57 1    
   109   55  121 1    
   110   56  122 1    
   111   56  123 1    
   112   56  124 1    
   113   57   58 2    
   114   57   59 am   BACKBONE|DICT|INTERRES
   115   59   60 1    
   116   59  125 1    
   117   60   61 1    
   118   60   62 1    
   119   60  126 1    
   120   61  127 1    
   121   61  128 1    
   122   61  129 1    
   123   62   63 2    
   124   62   64 am   BACKBONE|DICT|INTERRES
   125   64   65 1    
   126   64  130 1    
   127   65   66 1    
   128   65   69 1    
   129   65  131 1    
   130   66   67 am   BACKBONE|DICT|INTERRES
   131   66   68 2    
   132   67  132 1    
   133   67  133 1    
   134   69   70 1    
   135   69  134 1    
   136   69  135 1    
   137   70   71 1    
   138   71  136 1    
   139   71  137 1    
@<TRIPOS>SUBSTRUCTURE
     1 UNK         1 GROUP             0       ****    0 ROOT    
