@<TRIPOS>MOLECULE
3R137
137   139    1
SMALL
USER_CHARGES


@<TRIPOS>ATOM
      1 CA         26.6812   -6.2531    1.7790 C.3       0 UNK        -0.2020 
      2 C          26.3036   -4.7797    1.7590 C.2       0 UNK         0.4855 
      3 O          25.2024   -4.4237    2.1788 O.2       0 UNK        -0.5197 
      4 N          27.2098   -3.9199    1.2763 N.am      1 UNK        -0.4892 
      5 CA         27.0165   -2.4694    1.1453 C.3       1 UNK         0.0835 
      6 C6         28.3610   -1.7190    0.9532 C.3       12 UNK        -0.0855 
      7 S7         29.4493   -2.4432   -0.3252 S.3       12 UNK        -0.2931 
      8 C8         29.1347   -1.3241   -1.7206 C.3       12 UNK         0.0378 
      9 C9         29.8083   -1.8262   -2.9871 C.ar      12 UNK        -0.0802 
     10 C10        30.9879   -1.2345   -3.4455 C.ar      12 UNK        -0.0944 
     11 C11        31.6187   -1.7107   -4.5988 C.ar      12 UNK        -0.0787 
     12 C12        31.0557   -2.7826   -5.3006 C.ar      12 UNK        -0.0862 
     13 C13        29.8785   -3.3875   -4.8458 C.ar      12 UNK        -0.0733 
     14 C14        29.2553   -2.8968   -3.6942 C.ar      12 UNK        -0.0832 
     15 C15        29.3182   -4.6141   -5.5549 C.3       12 UNK         0.0240 
     16 S16        28.4033   -4.2059   -7.0737 S.3       12 UNK        -0.2522 
     17 C17        26.9020   -3.4043   -6.4141 C.3       12 UNK        -0.0967 
     18 CA         26.5294   -2.1302   -7.2077 C.3       5 UNK         0.0660 
     19 N          25.2318   -1.5786   -6.8560 N.am      5 UNK        -0.4015 
     20 C          24.0240   -2.0293   -7.1913 C.2       4 UNK         0.4946 
     21 O          23.8331   -3.0667   -7.8278 O.2       4 UNK        -0.5353 
     22 CA         22.8309   -1.1588   -6.7298 C.3       4 UNK         0.0277 
     23 CB         21.4942   -1.9221   -6.7796 C.3       4 UNK        -0.1981 
     24 N          23.0100   -0.6002   -5.3820 N.am      4 UNK        -0.4209 
     25 C          23.8403    0.3965   -5.0371 C.2       3 UNK         0.4942 
     26 O          24.5490    1.0040   -5.8410 O.2       3 UNK        -0.5208 
     27 CA         23.9998    0.6654   -3.5331 C.3       3 UNK         0.0250 
     28 CB         22.8466    1.5337   -3.0068 C.3       3 UNK        -0.1990 
     29 N          24.0888   -0.5756   -2.7561 N.am      3 UNK        -0.4232 
     30 C          25.0602   -1.4920   -2.8855 C.2       2 UNK         0.4993 
     31 O          26.0332   -1.3643   -3.6342 O.2       2 UNK        -0.5286 
     32 CA         24.8910   -2.7877   -2.0728 C.3       2 UNK         0.0209 
     33 CB         24.9870   -4.0216   -2.9870 C.3       2 UNK        -0.1931 
     34 N          25.8653   -2.9170   -0.9874 N.am      2 UNK        -0.4546 
     35 C          25.9788   -2.0918    0.0644 C.2       1 UNK         0.5154 
     36 O          25.2840   -1.0871    0.2235 O.2       1 UNK        -0.5181 
     37 C          27.5409   -0.9873   -7.0537 C.2       5 UNK         0.5014 
     38 O          28.2165   -0.6638   -8.0283 O.2       5 UNK        -0.5248 
     39 N          27.5566   -0.3247   -5.8845 N.am      6 UNK        -0.4434 
     40 CA         28.3908    0.8518   -5.5990 C.3       6 UNK         0.0363 
     41 CB         28.1047    1.3478   -4.1740 C.3       6 UNK        -0.1936 
     42 C          28.2036    2.0189   -6.5870 C.2       6 UNK         0.5081 
     43 O          29.1726    2.7089   -6.9003 O.2       6 UNK        -0.5248 
     44 N          26.9655    2.2200   -7.0591 N.am      7 UNK        -0.4718 
     45 CA         26.6160    3.2315   -8.0584 C.3       7 UNK         0.0273 
     46 CB         25.1220    3.5665   -7.9129 C.3       7 UNK        -0.1935 
     47 C          26.9281    2.8066   -9.5070 C.2       7 UNK         0.5018 
     48 O          26.9051    3.6659  -10.3895 O.2       7 UNK        -0.5186 
     49 N          27.1720    1.5097   -9.7421 N.am      8 UNK        -0.4240 
     50 CA         27.3831    0.9278  -11.0697 C.3       8 UNK         0.0235 
     51 CB         26.5385   -0.3518  -11.2002 C.3       8 UNK        -0.2000 
     52 C          28.8648    0.6240  -11.3324 C.2       8 UNK         0.4941 
     53 O          29.3578    0.9208  -12.4219 O.2       8 UNK        -0.5273 
     54 N          29.5428    0.0246  -10.3463 N.am      9 UNK        -0.4262 
     55 CA         30.9602   -0.3282  -10.3895 C.3       9 UNK         0.0264 
     56 CB         31.2465   -1.3433   -9.2685 C.3       9 UNK        -0.1955 
     57 C          31.8610    0.9078  -10.2372 C.2       9 UNK         0.5031 
     58 O          31.4551    1.9025   -9.6318 O.2       9 UNK        -0.5390 
     59 N          33.0896    0.8056  -10.7609 N.am      10 UNK        -0.4204 
     60 CA         34.1336    1.8227  -10.6010 C.3       10 UNK         0.0237 
     61 CB         35.2494    1.5800  -11.6309 C.3       10 UNK        -0.1985 
     62 C          34.7129    1.8595   -9.1747 C.2       10 UNK         0.4970 
     63 O          35.0881    2.9368   -8.7096 O.2       10 UNK        -0.4914 
     64 N          34.7684    0.6893   -8.5207 N.am      11 UNK        -0.4285 
     65 CA         35.3036    0.4671   -7.1673 C.3       11 UNK         0.1007 
     66 C          36.8144    0.8417   -7.0367 C.2       11 UNK         0.5703 
     67 N          37.3099    1.1409   -5.8425 N.am      11 UNK        -0.7361 
     68 O          37.5670    0.8030   -8.0093 O.2       11 UNK        -0.4986 
     69 C69        34.3886    1.0675   -6.0570 C.3       12 UNK        -0.0947 
     70 S70        32.6967    0.3796   -6.0716 S.3       12 UNK        -0.2240 
     71 C71        32.9389   -1.0998   -5.0423 C.3       12 UNK         0.0194 
     72 H72        26.6494   -6.6347    2.7992 H         1 UNK         0.0906 
     73 H73        25.9779   -6.8287    1.1778 H         1 UNK         0.0906 
     74 H74        27.6829   -6.4234    1.3848 H         1 UNK         0.0906 
     75 H75        28.1041   -4.2602    0.9483 H         1 UNK         0.3140 
     76 H76        26.5916   -2.1208    2.0898 H         1 UNK         0.1085 
     77 H77        28.9148   -1.7466    1.8930 H         1 UNK         0.0836 
     78 H78        28.1963   -0.6582    0.7523 H         1 UNK         0.0836 
     79 H79        28.0615   -1.2435   -1.8895 H         1 UNK         0.0731 
     80 H80        29.4861   -0.3228   -1.4666 H         1 UNK         0.0731 
     81 H81        31.4261   -0.4120   -2.8967 H         1 UNK         0.1312 
     82 H82        31.5462   -3.1638   -6.1859 H         1 UNK         0.1406 
     83 H83        28.3504   -3.3605   -3.3270 H         1 UNK         0.1631 
     84 H84        28.6691   -5.1838   -4.8878 H         1 UNK         0.0717 
     85 H85        30.1404   -5.2822   -5.8152 H         1 UNK         0.0717 
     86 H86        26.0907   -4.1311   -6.4725 H         1 UNK         0.0934 
     87 H87        27.0202   -3.1754   -5.3560 H         1 UNK         0.0934 
     88 H88        26.4894   -2.3887   -8.2682 H         1 UNK         0.0739 
     89 H89        25.2566   -0.6824   -6.3784 H         1 UNK         0.3093 
     90 H90        22.7642   -0.3256   -7.4329 H         1 UNK         0.0818 
     91 H91        20.6601   -1.2830   -6.4891 H         1 UNK         0.0819 
     92 H92        21.2844   -2.2820   -7.7878 H         1 UNK         0.0819 
     93 H93        21.5009   -2.7895   -6.1184 H         1 UNK         0.0819 
     94 H94        22.5096   -1.0679   -4.6404 H         1 UNK         0.3041 
     95 H95        24.9315    1.2146   -3.3890 H         1 UNK         0.0784 
     96 H96        22.7775    2.4685   -3.5651 H         1 UNK         0.0793 
     97 H97        21.8831    1.0298   -3.0939 H         1 UNK         0.0793 
     98 H98        22.9949    1.7954   -1.9588 H         1 UNK         0.0793 
     99 H99        23.3524   -0.7407   -2.0847 H         1 UNK         0.3024 
    100 H100       23.8965   -2.7866   -1.6212 H         1 UNK         0.1171 
    101 H101       24.3018   -3.9390   -3.8321 H         1 UNK         0.0786 
    102 H102       24.7279   -4.9339   -2.4493 H         1 UNK         0.0786 
    103 H103       25.9903   -4.1482   -3.3936 H         1 UNK         0.0786 
    104 H104       26.4878   -3.7103   -1.0261 H         1 UNK         0.2977 
    105 H105       27.0019   -0.6801   -5.1068 H         1 UNK         0.3127 
    106 H106       29.4324    0.5272   -5.6540 H         1 UNK         0.0770 
    107 H107       27.1021    1.7663   -4.0884 H         1 UNK         0.0814 
    108 H108       28.8104    2.1274   -3.8849 H         1 UNK         0.0814 
    109 H109       28.1901    0.5454   -3.4473 H         1 UNK         0.0814 
    110 H110       26.2010    1.6595   -6.6928 H         1 UNK         0.2983 
    111 H111       27.1892    4.1391   -7.8562 H         1 UNK         0.0947 
    112 H112       24.8271    4.3556   -8.6060 H         1 UNK         0.0806 
    113 H113       24.8897    3.9160   -6.9067 H         1 UNK         0.0806 
    114 H114       24.4930    2.6992   -8.1183 H         1 UNK         0.0806 
    115 H115       27.2696    0.8842   -8.9507 H         1 UNK         0.3000 
    116 H116       27.0483    1.6238  -11.8421 H         1 UNK         0.0850 
    117 H117       26.6611   -0.8000  -12.1871 H         1 UNK         0.0810 
    118 H118       25.4771   -0.1399  -11.0705 H         1 UNK         0.0810 
    119 H119       26.8215   -1.1044  -10.4635 H         1 UNK         0.0810 
    120 H120       29.0621   -0.1775   -9.4697 H         1 UNK         0.3040 
    121 H121       31.1676   -0.7991  -11.3527 H         1 UNK         0.0766 
    122 H122       32.2894   -1.6610   -9.2739 H         1 UNK         0.0812 
    123 H123       30.6338   -2.2385   -9.3774 H         1 UNK         0.0812 
    124 H124       31.0384   -0.9209   -8.2841 H         1 UNK         0.0812 
    125 H125       33.3417   -0.0354  -11.2609 H         1 UNK         0.3205 
    126 H126       33.6927    2.8014  -10.8036 H         1 UNK         0.0754 
    127 H127       36.0273    2.3405  -11.5475 H         1 UNK         0.0769 
    128 H128       34.8653    1.6227  -12.6503 H         1 UNK         0.0769 
    129 H129       35.7278    0.6097  -11.4909 H         1 UNK         0.0769 
    130 H130       34.4573   -0.1389   -9.0032 H         1 UNK         0.2981 
    131 H131       35.2946   -0.6153   -7.0376 H         1 UNK         0.0541 
    132 H132       36.7238    1.1606   -5.0234 H         1 UNK         0.3459 
    133 H133       38.2908    1.3589   -5.7622 H         1 UNK         0.3459 
    134 H134       34.3166    2.1502   -6.1694 H         1 UNK         0.0612 
    135 H135       34.8053    0.8986   -5.0639 H         1 UNK         0.0612 
    136 H136       33.5273   -1.8302   -5.5994 H         1 UNK         0.0624 
    137 H137       33.5265   -0.8411   -4.1602 H         1 UNK         0.0624 
@<TRIPOS>BOND
     1    1    2 1    
     2    1   72 1    
     3    1   73 1    
     4    1   74 1    
     5    2    3 2    
     6    2    4 am   BACKBONE|DICT|INTERRES
     7    4    5 1    
     8    4   75 1    
     9    5    6 1    
    10    5   35 1    
    11    5   76 1    
    12    6    7 1    
    13    6   77 1    
    14    6   78 1    
    15    7    8 1    
    16    8    9 1    
    17    8   79 1    
    18    8   80 1    
    19    9   10 ar   
    20    9   14 ar   
    21   10   11 ar   
    22   10   81 1    
    23   11   12 ar   
    24   11   71 1    
    25   12   13 ar   
    26   12   82 1    
    27   13   14 ar   
    28   13   15 1    
    29   14   83 1    
    30   15   16 1    
    31   15   84 1    
    32   15   85 1    
    33   16   17 1    
    34   17   18 1    
    35   17   86 1    
    36   17   87 1    
    37   18   19 1    
    38   18   37 1    
    39   18   88 1    
    40   19   20 am   BACKBONE|DICT|INTERRES
    41   19   89 1    
    42   20   21 2    
    43   20   22 1    
    44   22   23 1    
    45   22   24 1    
    46   22   90 1    
    47   23   91 1    
    48   23   92 1    
    49   23   93 1    
    50   24   25 am   BACKBONE|DICT|INTERRES
    51   24   94 1    
    52   25   26 2    
    53   25   27 1    
    54   27   28 1    
    55   27   29 1    
    56   27   95 1    
    57   28   96 1    
    58   28   97 1    
    59   28   98 1    
    60   29   30 am   BACKBONE|DICT|INTERRES
    61   29   99 1    
    62   30   31 2    
    63   30   32 1    
    64   32   33 1    
    65   32   34 1    
    66   32  100 1    
    67   33  101 1    
    68   33  102 1    
    69   33  103 1    
    70   34   35 am   BACKBONE|DICT|INTERRES
    71   34  104 1    
    72   35   36 2    
    73   37   38 2    
    74   37   39 am   BACKBONE|DICT|INTERRES
    75   39   40 1    
    76   39  105 1    
    77   40   41 1    
    78   40   42 1    
    79   40  106 1    
    80   41  107 1    
    81   41  108 1    
    82   41  109 1    
    83   42   43 2    
    84   42   44 am   BACKBONE|DICT|INTERRES
    85   44   45 1    
    86   44  110 1    
    87   45   46 1    
    88   45   47 1    
    89   45  111 1    
    90   46  112 1    
    91   46  113 1    
    92   46  114 1    
    93   47   48 2    
    94   47   49 am   BACKBONE|DICT|INTERRES
    95   49   50 1    
    96   49  115 1    
    97   50   51 1    
    98   50   52 1    
    99   50  116 1    
   100   51  117 1    
   101   51  118 1    
   102   51  119 1    
   103   52   53 2    
   104   52   54 am   BACKBONE|DICT|INTERRES
   105   54   55 1    
   106   54  120 1    
   107   55   56 1    
   108   55   57 1    
   109   55  121 1    
   110   56  122 1    
   111   56  123 1    
   112   56  124 1    
   113   57   58 2    
   114   57   59 am   BACKBONE|DICT|INTERRES
   115   59   60 1    
   116   59  125 1    
   117   60   61 1    
   118   60   62 1    
   119   60  126 1    
   120   61  127 1    
   121   61  128 1    
   122   61  129 1    
   123   62   63 2    
   124   62   64 am   BACKBONE|DICT|INTERRES
   125   64   65 1    
   126   64  130 1    
   127   65   66 1    
   128   65   69 1    
   129   65  131 1    
   130   66   67 am   BACKBONE|DICT|INTERRES
   131   66   68 2    
   132   67  132 1    
   133   67  133 1    
   134   69   70 1    
   135   69  134 1    
   136   69  135 1    
   137   70   71 1    
   138   71  136 1    
   139   71  137 1    
@<TRIPOS>SUBSTRUCTURE
     1 UNK         1 GROUP             0       ****    0 ROOT    
