@<TRIPOS>MOLECULE
3R137
137   139    1
SMALL
USER_CHARGES


@<TRIPOS>ATOM
      1 CA         25.2877   -5.7724   -3.2662 C.3       0 UNK        -0.2020 
      2 C          24.7461   -5.6488   -1.8436 C.2       0 UNK         0.4855 
      3 O          23.6324   -6.1047   -1.5933 O.2       0 UNK        -0.5197 
      4 N          25.4650   -5.0680   -0.8699 N.am      1 UNK        -0.4892 
      5 CA         26.7744   -4.4050   -0.9350 C.3       1 UNK         0.0835 
      6 C6         27.9354   -5.3436   -1.3650 C.3       12 UNK        -0.0855 
      7 S7         29.5704   -4.7253   -0.8210 S.3       12 UNK        -0.2931 
      8 C8         30.3618   -4.3397   -2.4203 C.3       12 UNK         0.0378 
      9 C9         31.0660   -2.9856   -2.4419 C.ar      12 UNK        -0.0802 
     10 C10        32.3721   -2.8913   -2.9335 C.ar      12 UNK        -0.0944 
     11 C11        33.0194   -1.6541   -2.9996 C.ar      12 UNK        -0.0787 
     12 C12        32.3540   -0.5037   -2.5685 C.ar      12 UNK        -0.0862 
     13 C13        31.0474   -0.5789   -2.0792 C.ar      12 UNK        -0.0733 
     14 C14        30.4084   -1.8215   -2.0229 C.ar      12 UNK        -0.0832 
     15 C15        30.3463    0.6785   -1.5785 C.3       12 UNK         0.0240 
     16 S16        28.9831    1.2202   -2.6585 S.3       12 UNK        -0.2522 
     17 C17        29.8526    1.7057   -4.1913 C.3       12 UNK        -0.0967 
     18 CA         29.0081    1.5465   -5.4832 C.3       5 UNK         0.0660 
     19 N          28.3659    0.2336   -5.5885 N.am      5 UNK        -0.4015 
     20 C          28.7723   -0.7414   -6.4113 C.2       4 UNK         0.4946 
     21 O          29.7075   -0.6125   -7.2034 O.2       4 UNK        -0.5353 
     22 CA         28.0494   -2.1007   -6.3427 C.3       4 UNK         0.0277 
     23 CB         28.9652   -3.1454   -5.6967 C.3       4 UNK        -0.1981 
     24 N          26.7869   -2.0619   -5.6033 N.am      4 UNK        -0.4209 
     25 C          25.6376   -1.5883   -6.1067 C.2       3 UNK         0.4942 
     26 O          25.5302   -1.1549   -7.2526 O.2       3 UNK        -0.5208 
     27 CA         24.4027   -1.5608   -5.1831 C.3       3 UNK         0.0250 
     28 CB         23.4940   -2.7667   -5.4702 C.3       3 UNK        -0.1990 
     29 N          24.7116   -1.5208   -3.7498 N.am      3 UNK        -0.4232 
     30 C          25.4527   -0.5790   -3.1512 C.2       2 UNK         0.4993 
     31 O          25.9488    0.3736   -3.7498 O.2       2 UNK        -0.5286 
     32 CA         25.7485   -0.7564   -1.6545 C.3       2 UNK         0.0209 
     33 CB         24.6867   -0.0308   -0.8136 C.3       2 UNK        -0.1931 
     34 N          25.8727   -2.1475   -1.1971 N.am      2 UNK        -0.4546 
     35 C          26.6893   -3.0778   -1.7167 C.2       1 UNK         0.5154 
     36 O          27.3123   -2.9307   -2.7699 O.2       1 UNK        -0.5181 
     37 C          27.9984    2.6885   -5.6950 C.2       5 UNK         0.5014 
     38 O          28.3194    3.6338   -6.4166 O.2       5 UNK        -0.5248 
     39 N          26.7860    2.5822   -5.1305 N.am      6 UNK        -0.4434 
     40 CA         25.7202    3.5858   -5.2436 C.3       6 UNK         0.0363 
     41 CB         24.5806    3.2366   -4.2729 C.3       6 UNK        -0.1936 
     42 C          25.1743    3.7483   -6.6727 C.2       6 UNK         0.5081 
     43 O          24.7548    4.8464   -7.0378 O.2       6 UNK        -0.5248 
     44 N          25.2162    2.6676   -7.4638 N.am      7 UNK        -0.4718 
     45 CA         24.8465    2.6582   -8.8827 C.3       7 UNK         0.0273 
     46 CB         24.3385    1.2544   -9.2533 C.3       7 UNK        -0.1935 
     47 C          26.0036    3.0758   -9.8128 C.2       7 UNK         0.5018 
     48 O          25.8190    3.0505  -11.0301 O.2       7 UNK        -0.5186 
     49 N          27.1728    3.4156   -9.2429 N.am      8 UNK        -0.4240 
     50 CA         28.4347    3.7383   -9.9222 C.3       8 UNK         0.0235 
     51 CB         28.3068    5.0302  -10.7582 C.3       8 UNK        -0.2000 
     52 C          29.0095    2.5524  -10.7247 C.2       8 UNK         0.4941 
     53 O          29.6515    2.7590  -11.7555 O.2       8 UNK        -0.5273 
     54 N          28.7912    1.3274  -10.2232 N.am      9 UNK        -0.4262 
     55 CA         29.2574    0.0721  -10.8238 C.3       9 UNK         0.0264 
     56 CB         28.2963   -1.0615  -10.4267 C.3       9 UNK        -0.1955 
     57 C          30.7227   -0.2752  -10.4846 C.2       9 UNK         0.5031 
     58 O          31.1982   -1.3300  -10.9088 O.2       9 UNK        -0.5390 
     59 N          31.4108    0.6065   -9.7418 N.am      10 UNK        -0.4204 
     60 CA         32.8402    0.5793   -9.4068 C.3       10 UNK         0.0237 
     61 CB         33.6835    0.8990  -10.6601 C.3       10 UNK        -0.1985 
     62 C          33.2870   -0.7140   -8.6984 C.2       10 UNK         0.4970 
     63 O          34.3172   -1.2865   -9.0593 O.2       10 UNK        -0.4914 
     64 N          32.4937   -1.1449   -7.7095 N.am      11 UNK        -0.4285 
     65 CA         32.6805   -2.3665   -6.9082 C.3       11 UNK         0.1007 
     66 C          32.3343   -3.6828   -7.6685 C.2       11 UNK         0.5703 
     67 N          31.7942   -3.6397   -8.8822 N.am      11 UNK        -0.7361 
     68 O          32.5239   -4.7717   -7.1321 O.2       11 UNK        -0.4986 
     69 C69        34.0568   -2.4551   -6.1803 C.3       12 UNK        -0.0947 
     70 S70        34.4977   -0.9554   -5.2347 S.3       12 UNK        -0.2240 
     71 C71        34.4454   -1.5525   -3.5174 C.3       12 UNK         0.0194 
     72 H72        25.7493   -4.8560   -3.6251 H         1 UNK         0.0906 
     73 H73        26.0153   -6.5808   -3.3251 H         1 UNK         0.0906 
     74 H74        24.4782   -6.0124   -3.9552 H         1 UNK         0.0906 
     75 H75        25.0412   -5.0415    0.0479 H         1 UNK         0.3140 
     76 H76        26.9833   -4.1155    0.0968 H         1 UNK         0.1085 
     77 H77        27.9283   -5.5289   -2.4387 H         1 UNK         0.0836 
     78 H78        27.8012   -6.3220   -0.9011 H         1 UNK         0.0836 
     79 H79        29.6224   -4.3512   -3.2173 H         1 UNK         0.0731 
     80 H80        31.0625   -5.1431   -2.6522 H         1 UNK         0.0731 
     81 H81        32.8862   -3.7810   -3.2707 H         1 UNK         0.1312 
     82 H82        32.8587    0.4519   -2.6142 H         1 UNK         0.1406 
     83 H83        29.3962   -1.8802   -1.6505 H         1 UNK         0.1631 
     84 H84        31.0550    1.5002   -1.4647 H         1 UNK         0.0717 
     85 H85        29.9443    0.4860   -0.5829 H         1 UNK         0.0717 
     86 H86        30.2164    2.7294   -4.0839 H         1 UNK         0.0934 
     87 H87        30.7461    1.0892   -4.2926 H         1 UNK         0.0934 
     88 H88        29.7112    1.6606   -6.3112 H         1 UNK         0.0739 
     89 H89        27.5982    0.0565   -4.9502 H         1 UNK         0.3093 
     90 H90        27.8387   -2.4229   -7.3640 H         1 UNK         0.0818 
     91 H91        29.3870   -2.7656   -4.7670 H         1 UNK         0.0819 
     92 H92        28.4364   -4.0740   -5.4808 H         1 UNK         0.0819 
     93 H93        29.7935   -3.3928   -6.3575 H         1 UNK         0.0819 
     94 H94        26.8183   -2.3741   -4.6362 H         1 UNK         0.3041 
     95 H95        23.8487   -0.6499   -5.4197 H         1 UNK         0.0784 
     96 H96        23.9882   -3.7098   -5.2352 H         1 UNK         0.0793 
     97 H97        23.2130   -2.8006   -6.5239 H         1 UNK         0.0793 
     98 H98        22.5705   -2.7164   -4.8930 H         1 UNK         0.0793 
     99 H99        24.3547   -2.2748   -3.1819 H         1 UNK         0.3024 
    100 H100       26.7115   -0.2769   -1.4694 H         1 UNK         0.1171 
    101 H101       24.9503   -0.0281    0.2442 H         1 UNK         0.0786 
    102 H102       24.5899    1.0115   -1.1222 H         1 UNK         0.0786 
    103 H103       23.7044   -0.4938   -0.9154 H         1 UNK         0.0786 
    104 H104       25.3630   -2.3825   -0.3573 H         1 UNK         0.2977 
    105 H105       26.5693    1.7709   -4.5489 H         1 UNK         0.3127 
    106 H106       26.1403    4.5479   -4.9426 H         1 UNK         0.0770 
    107 H107       24.1110    2.2857   -4.5281 H         1 UNK         0.0814 
    108 H108       23.8024    4.0006   -4.2930 H         1 UNK         0.0814 
    109 H109       24.9407    3.1665   -3.2463 H         1 UNK         0.0814 
    110 H110       25.5625    1.8003   -7.0774 H         1 UNK         0.2983 
    111 H111       24.0306    3.3664   -9.0442 H         1 UNK         0.0947 
    112 H112       23.9172    1.2446  -10.2593 H         1 UNK         0.0806 
    113 H113       23.5564    0.9169   -8.5729 H         1 UNK         0.0806 
    114 H114       25.1425    0.5181   -9.2346 H         1 UNK         0.0806 
    115 H115       27.2179    3.4363   -8.2300 H         1 UNK         0.3000 
    116 H116       29.1571    3.9379   -9.1292 H         1 UNK         0.0850 
    117 H117       29.2797    5.3510  -11.1326 H         1 UNK         0.0810 
    118 H118       27.9046    5.8497  -10.1626 H         1 UNK         0.0810 
    119 H119       27.6575    4.8928  -11.6233 H         1 UNK         0.0810 
    120 H120       28.2638    1.2454   -9.3664 H         1 UNK         0.3040 
    121 H121       29.2108    0.1730  -11.9102 H         1 UNK         0.0766 
    122 H122       27.2767   -0.8472  -10.7475 H         1 UNK         0.0812 
    123 H123       28.2804   -1.2192   -9.3505 H         1 UNK         0.0812 
    124 H124       28.5872   -2.0056  -10.8892 H         1 UNK         0.0812 
    125 H125       30.9005    1.4106   -9.4086 H         1 UNK         0.3205 
    126 H126       33.0024    1.3844   -8.6886 H         1 UNK         0.0754 
    127 H127       34.7405    0.9951  -10.4087 H         1 UNK         0.0769 
    128 H128       33.3740    1.8390  -11.1171 H         1 UNK         0.0769 
    129 H129       33.5970    0.1158  -11.4143 H         1 UNK         0.0769 
    130 H130       31.6090   -0.6706   -7.5475 H         1 UNK         0.2981 
    131 H131       31.9243   -2.2934   -6.1264 H         1 UNK         0.0541 
    132 H132       31.6437   -2.7587   -9.3582 H         1 UNK         0.3459 
    133 H133       31.5682   -4.5036   -9.3477 H         1 UNK         0.3459 
    134 H134       34.8576   -2.6439   -6.8963 H         1 UNK         0.0612 
    135 H135       34.0660   -3.3109   -5.5040 H         1 UNK         0.0612 
    136 H136       35.0066   -0.8573   -2.8913 H         1 UNK         0.0624 
    137 H137       34.9611   -2.5109   -3.4401 H         1 UNK         0.0624 
@<TRIPOS>BOND
     1    1    2 1    
     2    1   72 1    
     3    1   73 1    
     4    1   74 1    
     5    2    3 2    
     6    2    4 am   BACKBONE|DICT|INTERRES
     7    4    5 1    
     8    4   75 1    
     9    5    6 1    
    10    5   35 1    
    11    5   76 1    
    12    6    7 1    
    13    6   77 1    
    14    6   78 1    
    15    7    8 1    
    16    8    9 1    
    17    8   79 1    
    18    8   80 1    
    19    9   10 ar   
    20    9   14 ar   
    21   10   11 ar   
    22   10   81 1    
    23   11   12 ar   
    24   11   71 1    
    25   12   13 ar   
    26   12   82 1    
    27   13   14 ar   
    28   13   15 1    
    29   14   83 1    
    30   15   16 1    
    31   15   84 1    
    32   15   85 1    
    33   16   17 1    
    34   17   18 1    
    35   17   86 1    
    36   17   87 1    
    37   18   19 1    
    38   18   37 1    
    39   18   88 1    
    40   19   20 am   BACKBONE|DICT|INTERRES
    41   19   89 1    
    42   20   21 2    
    43   20   22 1    
    44   22   23 1    
    45   22   24 1    
    46   22   90 1    
    47   23   91 1    
    48   23   92 1    
    49   23   93 1    
    50   24   25 am   BACKBONE|DICT|INTERRES
    51   24   94 1    
    52   25   26 2    
    53   25   27 1    
    54   27   28 1    
    55   27   29 1    
    56   27   95 1    
    57   28   96 1    
    58   28   97 1    
    59   28   98 1    
    60   29   30 am   BACKBONE|DICT|INTERRES
    61   29   99 1    
    62   30   31 2    
    63   30   32 1    
    64   32   33 1    
    65   32   34 1    
    66   32  100 1    
    67   33  101 1    
    68   33  102 1    
    69   33  103 1    
    70   34   35 am   BACKBONE|DICT|INTERRES
    71   34  104 1    
    72   35   36 2    
    73   37   38 2    
    74   37   39 am   BACKBONE|DICT|INTERRES
    75   39   40 1    
    76   39  105 1    
    77   40   41 1    
    78   40   42 1    
    79   40  106 1    
    80   41  107 1    
    81   41  108 1    
    82   41  109 1    
    83   42   43 2    
    84   42   44 am   BACKBONE|DICT|INTERRES
    85   44   45 1    
    86   44  110 1    
    87   45   46 1    
    88   45   47 1    
    89   45  111 1    
    90   46  112 1    
    91   46  113 1    
    92   46  114 1    
    93   47   48 2    
    94   47   49 am   BACKBONE|DICT|INTERRES
    95   49   50 1    
    96   49  115 1    
    97   50   51 1    
    98   50   52 1    
    99   50  116 1    
   100   51  117 1    
   101   51  118 1    
   102   51  119 1    
   103   52   53 2    
   104   52   54 am   BACKBONE|DICT|INTERRES
   105   54   55 1    
   106   54  120 1    
   107   55   56 1    
   108   55   57 1    
   109   55  121 1    
   110   56  122 1    
   111   56  123 1    
   112   56  124 1    
   113   57   58 2    
   114   57   59 am   BACKBONE|DICT|INTERRES
   115   59   60 1    
   116   59  125 1    
   117   60   61 1    
   118   60   62 1    
   119   60  126 1    
   120   61  127 1    
   121   61  128 1    
   122   61  129 1    
   123   62   63 2    
   124   62   64 am   BACKBONE|DICT|INTERRES
   125   64   65 1    
   126   64  130 1    
   127   65   66 1    
   128   65   69 1    
   129   65  131 1    
   130   66   67 am   BACKBONE|DICT|INTERRES
   131   66   68 2    
   132   67  132 1    
   133   67  133 1    
   134   69   70 1    
   135   69  134 1    
   136   69  135 1    
   137   70   71 1    
   138   71  136 1    
   139   71  137 1    
@<TRIPOS>SUBSTRUCTURE
     1 UNK         1 GROUP             0       ****    0 ROOT    
