@<TRIPOS>MOLECULE
3R137
137   139    1
SMALL
USER_CHARGES


@<TRIPOS>ATOM
      1 CA         23.1376   -6.0313   -3.7398 C.3       0 UNK        -0.2020 
      2 C          24.4320   -5.2576   -3.5446 C.2       0 UNK         0.4855 
      3 O          24.8266   -4.4999   -4.4311 O.2       0 UNK        -0.5197 
      4 N          25.0844   -5.4284   -2.3845 N.am      1 UNK        -0.4892 
      5 CA         26.3549   -4.7918   -2.0040 C.3       1 UNK         0.0835 
      6 C6         27.5455   -5.3426   -2.8336 C.3       12 UNK        -0.0855 
      7 S7         29.1546   -5.1760   -1.9867 S.3       12 UNK        -0.2931 
      8 C8         30.2429   -4.5625   -3.3262 C.3       12 UNK         0.0378 
      9 C9         30.6967   -3.1023   -3.2236 C.ar      12 UNK        -0.0802 
     10 C10        31.5537   -2.6130   -4.2160 C.ar      12 UNK        -0.0944 
     11 C11        32.0504   -1.3077   -4.1582 C.ar      12 UNK        -0.0787 
     12 C12        31.6876   -0.4809   -3.0941 C.ar      12 UNK        -0.0862 
     13 C13        30.8228   -0.9439   -2.1001 C.ar      12 UNK        -0.0733 
     14 C14        30.3269   -2.2508   -2.1719 C.ar      12 UNK        -0.0832 
     15 C15        30.4374   -0.0328   -0.9410 C.3       12 UNK         0.0240 
     16 S16        29.5318    1.4503   -1.4927 S.3       12 UNK        -0.2522 
     17 C17        28.0986    0.6975   -2.3259 C.3       12 UNK        -0.0967 
     18 CA         28.1983    0.7979   -3.8722 C.3       5 UNK         0.0660 
     19 N          27.5898   -0.3573   -4.5346 N.am      5 UNK        -0.4015 
     20 C          27.6034   -0.6015   -5.8537 C.2       4 UNK         0.4946 
     21 O          28.1978    0.0834   -6.6859 O.2       4 UNK        -0.5353 
     22 CA         26.7692   -1.7974   -6.3372 C.3       4 UNK         0.0277 
     23 CB         27.5737   -3.0952   -6.1807 C.3       4 UNK        -0.1981 
     24 N          25.4878   -1.9052   -5.6313 N.am      4 UNK        -0.4209 
     25 C          24.5244   -0.9706   -5.6761 C.2       3 UNK         0.4942 
     26 O          24.5829    0.0428   -6.3720 O.2       3 UNK        -0.5208 
     27 CA         23.3232   -1.1594   -4.7376 C.3       3 UNK         0.0250 
     28 CB         22.3272   -2.1856   -5.3012 C.3       3 UNK        -0.1990 
     29 N          23.7399   -1.5400   -3.3861 N.am      3 UNK        -0.4232 
     30 C          24.4189   -0.7351   -2.5550 C.2       2 UNK         0.4993 
     31 O          24.7241    0.4258   -2.8251 O.2       2 UNK        -0.5286 
     32 CA         24.8672   -1.3292   -1.2093 C.3       2 UNK         0.0209 
     33 CB         23.7814   -1.1226   -0.1417 C.3       2 UNK        -0.1931 
     34 N          25.2161   -2.7507   -1.2856 N.am      2 UNK        -0.4546 
     35 C          26.2279   -3.2507   -2.0109 C.2       1 UNK         0.5154 
     36 O          26.9736   -2.5528   -2.7000 O.2       1 UNK        -0.5181 
     37 C          27.6166    2.1302   -4.3858 C.2       5 UNK         0.5014 
     38 O          28.3763    3.0051   -4.8030 O.2       5 UNK        -0.5248 
     39 N          26.2799    2.2482   -4.3641 N.am      6 UNK        -0.4434 
     40 CA         25.5312    3.4229   -4.8174 C.3       6 UNK         0.0363 
     41 CB         24.0474    3.2576   -4.4524 C.3       6 UNK        -0.1936 
     42 C          25.6895    3.7024   -6.3205 C.2       6 UNK         0.5081 
     43 O          25.8291    4.8630   -6.7077 O.2       6 UNK        -0.5248 
     44 N          25.6792    2.6412   -7.1378 N.am      7 UNK        -0.4718 
     45 CA         25.8961    2.7129   -8.5848 C.3       7 UNK         0.0273 
     46 CB         25.4081    1.4035   -9.2259 C.3       7 UNK        -0.1935 
     47 C          27.3617    2.9752   -8.9763 C.2       7 UNK         0.5018 
     48 O          27.6026    3.4178  -10.1002 O.2       7 UNK        -0.5186 
     49 N          28.3004    2.6656   -8.0677 N.am      8 UNK        -0.4240 
     50 CA         29.7532    2.5995   -8.2650 C.3       8 UNK         0.0235 
     51 CB         30.3506    3.9984   -8.5225 C.3       8 UNK        -0.2000 
     52 C          30.1133    1.5696   -9.3517 C.2       8 UNK         0.4941 
     53 O          30.8634    1.8741  -10.2822 O.2       8 UNK        -0.5273 
     54 N          29.5402    0.3651   -9.2267 N.am      9 UNK        -0.4262 
     55 CA         29.5786   -0.7188  -10.2133 C.3       9 UNK         0.0264 
     56 CB         28.3933   -1.6658   -9.9494 C.3       9 UNK        -0.1955 
     57 C          30.9318   -1.4602  -10.2835 C.2       9 UNK         0.5031 
     58 O          30.9545   -2.6901  -10.2168 O.2       9 UNK        -0.5390 
     59 N          32.0153   -0.6895  -10.4519 N.am      10 UNK        -0.4204 
     60 CA         33.4183   -1.0764  -10.6430 C.3       10 UNK         0.0237 
     61 CB         33.6069   -1.6395  -12.0674 C.3       10 UNK        -0.1985 
     62 C          33.9564   -2.0522   -9.5677 C.2       10 UNK         0.4970 
     63 O          33.9388   -3.2606   -9.8022 O.2       10 UNK        -0.4914 
     64 N          34.4578   -1.6018   -8.4068 N.am      11 UNK        -0.4285 
     65 CA         34.6973   -0.2276   -7.9212 C.3       11 UNK         0.1007 
     66 C          35.7938    0.5703   -8.6900 C.2       11 UNK         0.5703 
     67 N          36.6368   -0.0758   -9.4865 N.am      11 UNK        -0.7361 
     68 O          35.8955    1.7867   -8.5535 O.2       11 UNK        -0.4986 
     69 C69        33.4059    0.6016   -7.6528 C.3       12 UNK        -0.0947 
     70 S70        32.0988   -0.2670   -6.7163 S.3       12 UNK        -0.2240 
     71 C71        32.9994   -0.7967   -5.2291 C.3       12 UNK         0.0194 
     72 H72        23.2081   -6.6576   -4.6287 H         1 UNK         0.0906 
     73 H73        22.9125   -6.6742   -2.8891 H         1 UNK         0.0906 
     74 H74        22.3048   -5.3418   -3.8749 H         1 UNK         0.0906 
     75 H75        24.6960   -6.0582   -1.6948 H         1 UNK         0.3140 
     76 H76        26.5237   -5.0719   -0.9626 H         1 UNK         0.1085 
     77 H77        27.5658   -4.8974   -3.8256 H         1 UNK         0.0836 
     78 H78        27.4046   -6.4107   -3.0065 H         1 UNK         0.0836 
     79 H79        29.7728   -4.7240   -4.2967 H         1 UNK         0.0731 
     80 H80        31.1363   -5.1886   -3.3243 H         1 UNK         0.0731 
     81 H81        31.8470   -3.2549   -5.0358 H         1 UNK         0.1312 
     82 H82        32.0713    0.5290   -3.0404 H         1 UNK         0.1406 
     83 H83        29.6587   -2.5985   -1.3976 H         1 UNK         0.1631 
     84 H84        31.3420    0.2804   -0.4180 H         1 UNK         0.0717 
     85 H85        29.8296   -0.5671   -0.2090 H         1 UNK         0.0717 
     86 H86        28.0419   -0.3441   -2.0128 H         1 UNK         0.0934 
     87 H87        27.1869    1.1571   -1.9397 H         1 UNK         0.0934 
     88 H88        29.2515    0.7715   -4.1602 H         1 UNK         0.0739 
     89 H89        27.1424   -1.0404   -3.9297 H         1 UNK         0.3093 
     90 H90        26.5475   -1.6515   -7.3961 H         1 UNK         0.0818 
     91 H91        28.4541   -3.0903   -6.8236 H         1 UNK         0.0819 
     92 H92        27.9333   -3.2093   -5.1599 H         1 UNK         0.0819 
     93 H93        26.9814   -3.9738   -6.4372 H         1 UNK         0.0819 
     94 H94        25.3439   -2.7336   -5.0579 H         1 UNK         0.3041 
     95 H95        22.8079   -0.1989   -4.6664 H         1 UNK         0.0784 
     96 H96        21.9672   -1.8742   -6.2828 H         1 UNK         0.0793 
     97 H97        22.7760   -3.1713   -5.4209 H         1 UNK         0.0793 
     98 H98        21.4550   -2.2890   -4.6555 H         1 UNK         0.0793 
     99 H99        23.5671   -2.4926   -3.1018 H         1 UNK         0.3024 
    100 H100       25.7605   -0.7846   -0.8966 H         1 UNK         0.1171 
    101 H101       24.1213   -1.4537    0.8398 H         1 UNK         0.0786 
    102 H102       23.5194   -0.0671   -0.0520 H         1 UNK         0.0786 
    103 H103       22.8667   -1.6658   -0.3826 H         1 UNK         0.0786 
    104 H104       24.6322   -3.3924   -0.7684 H         1 UNK         0.2977 
    105 H105       25.7286    1.4915   -3.9612 H         1 UNK         0.3127 
    106 H106       25.9206    4.2890   -4.2783 H         1 UNK         0.0770 
    107 H107       23.6109    2.3799   -4.9312 H         1 UNK         0.0814 
    108 H108       23.4673    4.1259   -4.7673 H         1 UNK         0.0814 
    109 H109       23.9138    3.1506   -3.3758 H         1 UNK         0.0814 
    110 H110       25.4886    1.7203   -6.7484 H         1 UNK         0.2983 
    111 H111       25.2983    3.5352   -8.9842 H         1 UNK         0.0947 
    112 H112       25.5401    1.4213  -10.3086 H         1 UNK         0.0806 
    113 H113       24.3487    1.2370   -9.0303 H         1 UNK         0.0806 
    114 H114       25.9571    0.5426   -8.8425 H         1 UNK         0.0806 
    115 H115       27.9768    2.2703   -7.1925 H         1 UNK         0.3000 
    116 H116       30.1729    2.2247   -7.3298 H         1 UNK         0.0850 
    117 H117       31.4396    3.9527   -8.5613 H         1 UNK         0.0810 
    118 H118       30.0822    4.6943   -7.7278 H         1 UNK         0.0810 
    119 H119       30.0099    4.4199   -9.4686 H         1 UNK         0.0810 
    120 H120       29.0015    0.1921   -8.3790 H         1 UNK         0.3040 
    121 H121       29.4215   -0.2739  -11.1982 H         1 UNK         0.0766 
    122 H122       27.4443   -1.1303   -9.9607 H         1 UNK         0.0812 
    123 H123       28.4896   -2.1630   -8.9852 H         1 UNK         0.0812 
    124 H124       28.3331   -2.4424  -10.7130 H         1 UNK         0.0812 
    125 H125       31.8304    0.3125  -10.4677 H         1 UNK         0.3205 
    126 H126       33.9936   -0.1547  -10.6012 H         1 UNK         0.0754 
    127 H127       34.6502   -1.9010  -12.2490 H         1 UNK         0.0769 
    128 H128       33.3206   -0.9079  -12.8231 H         1 UNK         0.0769 
    129 H129       33.0115   -2.5385  -12.2324 H         1 UNK         0.0769 
    130 H130       34.7877   -2.3093   -7.7679 H         1 UNK         0.2981 
    131 H131       35.1646   -0.3777   -6.9483 H         1 UNK         0.0541 
    132 H132       36.5973   -1.0784   -9.5781 H         1 UNK         0.3459 
    133 H133       37.3491    0.4460   -9.9729 H         1 UNK         0.3459 
    134 H134       33.6552    1.5011   -7.0872 H         1 UNK         0.0612 
    135 H135       32.9785    0.9614   -8.5867 H         1 UNK         0.0612 
    136 H136       33.7058   -1.5850   -5.4912 H         1 UNK         0.0624 
    137 H137       33.5891    0.0381   -4.8468 H         1 UNK         0.0624 
@<TRIPOS>BOND
     1    1    2 1    
     2    1   72 1    
     3    1   73 1    
     4    1   74 1    
     5    2    3 2    
     6    2    4 am   BACKBONE|DICT|INTERRES
     7    4    5 1    
     8    4   75 1    
     9    5    6 1    
    10    5   35 1    
    11    5   76 1    
    12    6    7 1    
    13    6   77 1    
    14    6   78 1    
    15    7    8 1    
    16    8    9 1    
    17    8   79 1    
    18    8   80 1    
    19    9   10 ar   
    20    9   14 ar   
    21   10   11 ar   
    22   10   81 1    
    23   11   12 ar   
    24   11   71 1    
    25   12   13 ar   
    26   12   82 1    
    27   13   14 ar   
    28   13   15 1    
    29   14   83 1    
    30   15   16 1    
    31   15   84 1    
    32   15   85 1    
    33   16   17 1    
    34   17   18 1    
    35   17   86 1    
    36   17   87 1    
    37   18   19 1    
    38   18   37 1    
    39   18   88 1    
    40   19   20 am   BACKBONE|DICT|INTERRES
    41   19   89 1    
    42   20   21 2    
    43   20   22 1    
    44   22   23 1    
    45   22   24 1    
    46   22   90 1    
    47   23   91 1    
    48   23   92 1    
    49   23   93 1    
    50   24   25 am   BACKBONE|DICT|INTERRES
    51   24   94 1    
    52   25   26 2    
    53   25   27 1    
    54   27   28 1    
    55   27   29 1    
    56   27   95 1    
    57   28   96 1    
    58   28   97 1    
    59   28   98 1    
    60   29   30 am   BACKBONE|DICT|INTERRES
    61   29   99 1    
    62   30   31 2    
    63   30   32 1    
    64   32   33 1    
    65   32   34 1    
    66   32  100 1    
    67   33  101 1    
    68   33  102 1    
    69   33  103 1    
    70   34   35 am   BACKBONE|DICT|INTERRES
    71   34  104 1    
    72   35   36 2    
    73   37   38 2    
    74   37   39 am   BACKBONE|DICT|INTERRES
    75   39   40 1    
    76   39  105 1    
    77   40   41 1    
    78   40   42 1    
    79   40  106 1    
    80   41  107 1    
    81   41  108 1    
    82   41  109 1    
    83   42   43 2    
    84   42   44 am   BACKBONE|DICT|INTERRES
    85   44   45 1    
    86   44  110 1    
    87   45   46 1    
    88   45   47 1    
    89   45  111 1    
    90   46  112 1    
    91   46  113 1    
    92   46  114 1    
    93   47   48 2    
    94   47   49 am   BACKBONE|DICT|INTERRES
    95   49   50 1    
    96   49  115 1    
    97   50   51 1    
    98   50   52 1    
    99   50  116 1    
   100   51  117 1    
   101   51  118 1    
   102   51  119 1    
   103   52   53 2    
   104   52   54 am   BACKBONE|DICT|INTERRES
   105   54   55 1    
   106   54  120 1    
   107   55   56 1    
   108   55   57 1    
   109   55  121 1    
   110   56  122 1    
   111   56  123 1    
   112   56  124 1    
   113   57   58 2    
   114   57   59 am   BACKBONE|DICT|INTERRES
   115   59   60 1    
   116   59  125 1    
   117   60   61 1    
   118   60   62 1    
   119   60  126 1    
   120   61  127 1    
   121   61  128 1    
   122   61  129 1    
   123   62   63 2    
   124   62   64 am   BACKBONE|DICT|INTERRES
   125   64   65 1    
   126   64  130 1    
   127   65   66 1    
   128   65   69 1    
   129   65  131 1    
   130   66   67 am   BACKBONE|DICT|INTERRES
   131   66   68 2    
   132   67  132 1    
   133   67  133 1    
   134   69   70 1    
   135   69  134 1    
   136   69  135 1    
   137   70   71 1    
   138   71  136 1    
   139   71  137 1    
@<TRIPOS>SUBSTRUCTURE
     1 UNK         1 GROUP             0       ****    0 ROOT    
