@<TRIPOS>MOLECULE
3R137
137   139    1
SMALL
USER_CHARGES


@<TRIPOS>ATOM
      1 CA         30.5881   -5.4043   -5.5388 C.3       0 UNK        -0.2020 
      2 C          29.5078   -5.6360   -4.4953 C.2       0 UNK         0.4855 
      3 O          29.1345   -6.7826   -4.2465 O.2       0 UNK        -0.5197 
      4 N          28.9948   -4.5603   -3.8912 N.am      1 UNK        -0.4892 
      5 CA         27.8890   -4.5769   -2.9358 C.3       1 UNK         0.0835 
      6 C6         28.3111   -5.0795   -1.5213 C.3       12 UNK        -0.0855 
      7 S7         29.0350   -3.8518   -0.3745 S.3       12 UNK        -0.2931 
      8 C8         30.7695   -3.7466   -0.9380 C.3       12 UNK         0.0378 
      9 C9         31.1702   -2.4064   -1.5620 C.ar      12 UNK        -0.0802 
     10 C10        32.3259   -2.3582   -2.3487 C.ar      12 UNK        -0.0944 
     11 C11        32.7676   -1.1546   -2.9154 C.ar      12 UNK        -0.0787 
     12 C12        32.0440    0.0147   -2.6633 C.ar      12 UNK        -0.0862 
     13 C13        30.8967   -0.0061   -1.8668 C.ar      12 UNK        -0.0733 
     14 C14        30.4620   -1.2193   -1.3256 C.ar      12 UNK        -0.0832 
     15 C15        30.1609    1.2902   -1.5420 C.3       12 UNK         0.0240 
     16 S16        29.5287    2.1491   -3.0198 S.3       12 UNK        -0.2522 
     17 C17        28.1999    1.0239   -3.5504 C.3       12 UNK        -0.0967 
     18 CA         27.9260    1.1315   -5.0711 C.3       5 UNK         0.0660 
     19 N          27.4790   -0.1419   -5.6326 N.am      5 UNK        -0.4015 
     20 C          27.3429   -0.3984   -6.9398 C.2       4 UNK         0.4946 
     21 O          27.6766    0.3857   -7.8300 O.2       4 UNK        -0.5353 
     22 CA         26.6897   -1.7379   -7.3148 C.3       4 UNK         0.0277 
     23 CB         27.7349   -2.8619   -7.3743 C.3       4 UNK        -0.1981 
     24 N          25.6156   -2.1078   -6.3885 N.am      4 UNK        -0.4209 
     25 C          24.4454   -1.4592   -6.2938 C.2       3 UNK         0.4942 
     26 O          24.1320   -0.5062   -7.0046 O.2       3 UNK        -0.5208 
     27 CA         23.4802   -1.9230   -5.1910 C.3       3 UNK         0.0250 
     28 CB         22.7110   -3.1788   -5.6311 C.3       3 UNK        -0.1990 
     29 N          24.1561   -2.1765   -3.9163 N.am      3 UNK        -0.4232 
     30 C          24.7728   -1.2364   -3.1856 C.2       2 UNK         0.4993 
     31 O          24.8213   -0.0468   -3.4944 O.2       2 UNK        -0.5286 
     32 CA         25.5081   -1.7116   -1.9236 C.3       2 UNK         0.0209 
     33 CB         24.5405   -1.8065   -0.7336 C.3       2 UNK        -0.1931 
     34 N          26.2095   -2.9889   -2.0939 N.am      2 UNK        -0.4546 
     35 C          27.1944   -3.2023   -2.9780 C.2       1 UNK         0.5154 
     36 O          27.5490   -2.3640   -3.8135 O.2       1 UNK        -0.5181 
     37 C          26.9495    2.2758   -5.4179 C.2       5 UNK         0.5014 
     38 O          27.3811    3.2958   -5.9568 O.2       5 UNK        -0.5248 
     39 N          25.6484    2.0658   -5.1623 N.am      6 UNK        -0.4434 
     40 CA         24.5635    3.0021   -5.4792 C.3       6 UNK         0.0363 
     41 CB         23.2426    2.4753   -4.8967 C.3       6 UNK        -0.1936 
     42 C          24.4118    3.2858   -6.9842 C.2       6 UNK         0.5081 
     43 O          24.1279    4.4236   -7.3587 O.2       6 UNK        -0.5248 
     44 N          24.6358    2.2633   -7.8208 N.am      7 UNK        -0.4718 
     45 CA         24.6596    2.3630   -9.2839 C.3       7 UNK         0.0273 
     46 CB         24.5177    0.9523   -9.8802 C.3       7 UNK        -0.1935 
     47 C          25.9180    3.0539   -9.8464 C.2       7 UNK         0.5018 
     48 O          25.9689    3.2920  -11.0537 O.2       7 UNK        -0.5186 
     49 N          26.9101    3.3367   -8.9872 N.am      8 UNK        -0.4240 
     50 CA         28.2263    3.9097   -9.2940 C.3       8 UNK         0.0235 
     51 CB         28.1015    5.3262   -9.8955 C.3       8 UNK        -0.2000 
     52 C          29.1266    2.9775  -10.1296 C.2       8 UNK         0.4941 
     53 O          30.0658    3.4525  -10.7707 O.2       8 UNK        -0.5273 
     54 N          28.8564    1.6658  -10.0784 N.am      9 UNK        -0.4262 
     55 CA         29.7224    0.6153  -10.6154 C.3       9 UNK         0.0264 
     56 CB         28.8775   -0.6292  -10.9337 C.3       9 UNK        -0.1955 
     57 C          30.8552    0.2696   -9.6329 C.2       9 UNK         0.5031 
     58 O          31.9184   -0.1683  -10.0752 O.2       9 UNK        -0.5390 
     59 N          30.6103    0.4919   -8.3309 N.am      10 UNK        -0.4204 
     60 CA         31.5143    0.2612   -7.2013 C.3       10 UNK         0.0237 
     61 CB         32.7421    1.1992   -7.2737 C.3       10 UNK        -0.1985 
     62 C          31.8420   -1.2353   -7.0599 C.2       10 UNK         0.4970 
     63 O          30.9087   -2.0324   -6.9675 O.2       10 UNK        -0.4914 
     64 N          33.1297   -1.5929   -7.0271 N.am      11 UNK        -0.4285 
     65 CA         33.6074   -2.9702   -6.8441 C.3       11 UNK         0.1007 
     66 C          34.9283   -3.2856   -7.6025 C.2       11 UNK         0.5703 
     67 N          35.3657   -2.4528   -8.5411 N.am      11 UNK        -0.7361 
     68 O          35.5567   -4.3133   -7.3601 O.2       11 UNK        -0.4986 
     69 C69        33.5920   -3.3952   -5.3488 C.3       12 UNK        -0.0947 
     70 S70        34.8443   -2.5932   -4.2862 S.3       12 UNK        -0.2240 
     71 C71        34.0315   -1.0383   -3.7716 C.3       12 UNK         0.0194 
     72 H72        30.6811   -4.3497   -5.7912 H         1 UNK         0.0906 
     73 H73        31.5494   -5.7594   -5.1696 H         1 UNK         0.0906 
     74 H74        30.3511   -5.9464   -6.4538 H         1 UNK         0.0906 
     75 H75        29.2801   -3.6244   -4.1558 H         1 UNK         0.3140 
     76 H76        27.1484   -5.2792   -3.3256 H         1 UNK         0.1085 
     77 H77        27.4298   -5.4817   -1.0194 H         1 UNK         0.0836 
     78 H78        28.9883   -5.9311   -1.6019 H         1 UNK         0.0836 
     79 H79        30.9708   -4.5538   -1.6439 H         1 UNK         0.0731 
     80 H80        31.4160   -3.9266   -0.0782 H         1 UNK         0.0731 
     81 H81        32.8853   -3.2694   -2.5038 H         1 UNK         0.1312 
     82 H82        32.3840    0.9552   -3.0758 H         1 UNK         0.1406 
     83 H83        29.5838   -1.2251   -0.6960 H         1 UNK         0.1631 
     84 H84        30.8470    1.9580   -1.0194 H         1 UNK         0.0717 
     85 H85        29.3311    1.1098   -0.8567 H         1 UNK         0.0717 
     86 H86        28.5182    0.0104   -3.3047 H         1 UNK         0.0934 
     87 H87        27.3032    1.2044   -2.9543 H         1 UNK         0.0934 
     88 H88        28.8686    1.3583   -5.5724 H         1 UNK         0.0739 
     89 H89        27.2600   -0.8805   -4.9692 H         1 UNK         0.3093 
     90 H90        26.2541   -1.6265   -8.3098 H         1 UNK         0.0818 
     91 H91        27.2866   -3.8092   -7.6736 H         1 UNK         0.0819 
     92 H92        28.5132   -2.6295   -8.1020 H         1 UNK         0.0819 
     93 H93        28.2276   -3.0107   -6.4131 H         1 UNK         0.0819 
     94 H94        25.8096   -2.8552   -5.7387 H         1 UNK         0.3041 
     95 H95        22.7568   -1.1207   -5.0295 H         1 UNK         0.0784 
     96 H96        22.1886   -3.0045   -6.5730 H         1 UNK         0.0793 
     97 H97        23.3738   -4.0322   -5.7794 H         1 UNK         0.0793 
     98 H98        21.9590   -3.4614   -4.8941 H         1 UNK         0.0793 
     99 H99        24.1686   -3.1287   -3.5811 H         1 UNK         0.3024 
    100 H100       26.2614   -0.9558   -1.6893 H         1 UNK         0.1171 
    101 H101       25.0707   -2.0367    0.1908 H         1 UNK         0.0786 
    102 H102       24.0196   -0.8604   -0.5782 H         1 UNK         0.0786 
    103 H103       23.7820   -2.5751   -0.8869 H         1 UNK         0.0786 
    104 H104       25.9842   -3.7186   -1.4331 H         1 UNK         0.2977 
    105 H105       25.3745    1.2099   -4.6799 H         1 UNK         0.3127 
    106 H106       24.7975    3.9498   -4.9900 H         1 UNK         0.0770 
    107 H107       23.3052    2.3579   -3.8147 H         1 UNK         0.0814 
    108 H108       22.9735    1.5079   -5.3224 H         1 UNK         0.0814 
    109 H109       22.4217    3.1636   -5.1017 H         1 UNK         0.0814 
    110 H110       24.7757    1.3363   -7.4285 H         1 UNK         0.2983 
    111 H111       23.7995    2.9568   -9.6007 H         1 UNK         0.0947 
    112 H112       25.3529    0.3115   -9.5959 H         1 UNK         0.0806 
    113 H113       24.4878    0.9853  -10.9701 H         1 UNK         0.0806 
    114 H114       23.5976    0.4715   -9.5477 H         1 UNK         0.0806 
    115 H115       26.7695    3.0957   -8.0121 H         1 UNK         0.3000 
    116 H116       28.7291    4.0120   -8.3311 H         1 UNK         0.0850 
    117 H117       27.4622    5.9620   -9.2830 H         1 UNK         0.0810 
    118 H118       27.6889    5.3053  -10.9043 H         1 UNK         0.0810 
    119 H119       29.0761    5.8120   -9.9560 H         1 UNK         0.0810 
    120 H120       28.1035    1.3554   -9.4701 H         1 UNK         0.3040 
    121 H121       30.1780    0.9655  -11.5442 H         1 UNK         0.0766 
    122 H122       29.4961   -1.4206  -11.3591 H         1 UNK         0.0812 
    123 H123       28.0965   -0.4019  -11.6594 H         1 UNK         0.0812 
    124 H124       28.3982   -1.0345  -10.0426 H         1 UNK         0.0812 
    125 H125       29.6571    0.7391   -8.0857 H         1 UNK         0.3205 
    126 H126       30.9572    0.5257   -6.3020 H         1 UNK         0.0754 
    127 H127       33.3518    1.1294   -6.3730 H         1 UNK         0.0769 
    128 H128       32.4282    2.2398   -7.3585 H         1 UNK         0.0769 
    129 H129       33.3821    0.9826   -8.1296 H         1 UNK         0.0769 
    130 H130       33.8447   -0.8859   -7.1109 H         1 UNK         0.2981 
    131 H131       32.8891   -3.6190   -7.3491 H         1 UNK         0.0541 
    132 H132       36.2198   -2.6755   -9.0280 H         1 UNK         0.3459 
    133 H133       34.8253   -1.6509   -8.8225 H         1 UNK         0.3459 
    134 H134       32.6024   -3.2194   -4.9295 H         1 UNK         0.0612 
    135 H135       33.7478   -4.4724   -5.2742 H         1 UNK         0.0612 
    136 H136       33.8083   -0.4528   -4.6615 H         1 UNK         0.0624 
    137 H137       34.7643   -0.4592   -3.2084 H         1 UNK         0.0624 
@<TRIPOS>BOND
     1    1    2 1    
     2    1   72 1    
     3    1   73 1    
     4    1   74 1    
     5    2    3 2    
     6    2    4 am   BACKBONE|DICT|INTERRES
     7    4    5 1    
     8    4   75 1    
     9    5    6 1    
    10    5   35 1    
    11    5   76 1    
    12    6    7 1    
    13    6   77 1    
    14    6   78 1    
    15    7    8 1    
    16    8    9 1    
    17    8   79 1    
    18    8   80 1    
    19    9   10 ar   
    20    9   14 ar   
    21   10   11 ar   
    22   10   81 1    
    23   11   12 ar   
    24   11   71 1    
    25   12   13 ar   
    26   12   82 1    
    27   13   14 ar   
    28   13   15 1    
    29   14   83 1    
    30   15   16 1    
    31   15   84 1    
    32   15   85 1    
    33   16   17 1    
    34   17   18 1    
    35   17   86 1    
    36   17   87 1    
    37   18   19 1    
    38   18   37 1    
    39   18   88 1    
    40   19   20 am   BACKBONE|DICT|INTERRES
    41   19   89 1    
    42   20   21 2    
    43   20   22 1    
    44   22   23 1    
    45   22   24 1    
    46   22   90 1    
    47   23   91 1    
    48   23   92 1    
    49   23   93 1    
    50   24   25 am   BACKBONE|DICT|INTERRES
    51   24   94 1    
    52   25   26 2    
    53   25   27 1    
    54   27   28 1    
    55   27   29 1    
    56   27   95 1    
    57   28   96 1    
    58   28   97 1    
    59   28   98 1    
    60   29   30 am   BACKBONE|DICT|INTERRES
    61   29   99 1    
    62   30   31 2    
    63   30   32 1    
    64   32   33 1    
    65   32   34 1    
    66   32  100 1    
    67   33  101 1    
    68   33  102 1    
    69   33  103 1    
    70   34   35 am   BACKBONE|DICT|INTERRES
    71   34  104 1    
    72   35   36 2    
    73   37   38 2    
    74   37   39 am   BACKBONE|DICT|INTERRES
    75   39   40 1    
    76   39  105 1    
    77   40   41 1    
    78   40   42 1    
    79   40  106 1    
    80   41  107 1    
    81   41  108 1    
    82   41  109 1    
    83   42   43 2    
    84   42   44 am   BACKBONE|DICT|INTERRES
    85   44   45 1    
    86   44  110 1    
    87   45   46 1    
    88   45   47 1    
    89   45  111 1    
    90   46  112 1    
    91   46  113 1    
    92   46  114 1    
    93   47   48 2    
    94   47   49 am   BACKBONE|DICT|INTERRES
    95   49   50 1    
    96   49  115 1    
    97   50   51 1    
    98   50   52 1    
    99   50  116 1    
   100   51  117 1    
   101   51  118 1    
   102   51  119 1    
   103   52   53 2    
   104   52   54 am   BACKBONE|DICT|INTERRES
   105   54   55 1    
   106   54  120 1    
   107   55   56 1    
   108   55   57 1    
   109   55  121 1    
   110   56  122 1    
   111   56  123 1    
   112   56  124 1    
   113   57   58 2    
   114   57   59 am   BACKBONE|DICT|INTERRES
   115   59   60 1    
   116   59  125 1    
   117   60   61 1    
   118   60   62 1    
   119   60  126 1    
   120   61  127 1    
   121   61  128 1    
   122   61  129 1    
   123   62   63 2    
   124   62   64 am   BACKBONE|DICT|INTERRES
   125   64   65 1    
   126   64  130 1    
   127   65   66 1    
   128   65   69 1    
   129   65  131 1    
   130   66   67 am   BACKBONE|DICT|INTERRES
   131   66   68 2    
   132   67  132 1    
   133   67  133 1    
   134   69   70 1    
   135   69  134 1    
   136   69  135 1    
   137   70   71 1    
   138   71  136 1    
   139   71  137 1    
@<TRIPOS>SUBSTRUCTURE
     1 UNK         1 GROUP             0       ****    0 ROOT    
