@<TRIPOS>MOLECULE
3R137
137   139    1
SMALL
USER_CHARGES


@<TRIPOS>ATOM
      1 CA         26.3564   -5.7627   -8.1219 C.3       0 UNK        -0.2020 
      2 C          26.4441   -5.5640   -6.6163 C.2       0 UNK         0.4855 
      3 O          27.3166   -6.1443   -5.9703 O.2       0 UNK        -0.5197 
      4 N          25.5499   -4.7459   -6.0542 N.am      1 UNK        -0.4892 
      5 CA         25.4751   -4.4057   -4.6362 C.3       1 UNK         0.0835 
      6 C6         26.6126   -3.4387   -4.2050 C.3       12 UNK        -0.0855 
      7 S7         27.0886   -3.6531   -2.4591 S.3       12 UNK        -0.2931 
      8 C8         28.6132   -4.6372   -2.6268 C.3       12 UNK         0.0378 
      9 C9         29.7897   -3.7802   -3.0722 C.ar      12 UNK        -0.0802 
     10 C10        30.1889   -3.7588   -4.4123 C.ar      12 UNK        -0.0944 
     11 C11        31.2598   -2.9590   -4.8213 C.ar      12 UNK        -0.0787 
     12 C12        31.9491   -2.1943   -3.8749 C.ar      12 UNK        -0.0862 
     13 C13        31.5505   -2.1964   -2.5352 C.ar      12 UNK        -0.0733 
     14 C14        30.4791   -3.0027   -2.1380 C.ar      12 UNK        -0.0832 
     15 C15        32.2582   -1.3093   -1.5207 C.3       12 UNK         0.0240 
     16 S16        31.1264   -0.0847   -0.7846 S.3       12 UNK        -0.2522 
     17 C17        30.7996    1.0491   -2.1821 C.3       12 UNK        -0.0967 
     18 CA         29.6243    0.6165   -3.1082 C.3       5 UNK         0.0660 
     19 N          28.4220    0.1816   -2.3907 N.am      5 UNK        -0.4015 
     20 C          27.6086    0.9352   -1.6405 C.2       4 UNK         0.4946 
     21 O          27.7635    2.1392   -1.4254 O.2       4 UNK        -0.5353 
     22 CA         26.3839    0.2036   -1.0639 C.3       4 UNK         0.0277 
     23 CB         26.1352    0.6009    0.4017 C.3       4 UNK        -0.1981 
     24 N          25.1505    0.4123   -1.8316 N.am      4 UNK        -0.4209 
     25 C          24.9871    0.3051   -3.1585 C.2       3 UNK         0.4942 
     26 O          25.8966    0.0889   -3.9617 O.2       3 UNK        -0.5208 
     27 CA         23.5358    0.3529   -3.6622 C.3       3 UNK         0.0250 
     28 CB         23.4412    0.8708   -5.1089 C.3       3 UNK        -0.1990 
     29 N          22.9944   -1.0026   -3.6068 N.am      3 UNK        -0.4232 
     30 C          22.5876   -1.6287   -2.4958 C.2       2 UNK         0.4993 
     31 O          22.4016   -1.0569   -1.4208 O.2       2 UNK        -0.5286 
     32 CA         22.4348   -3.1586   -2.5740 C.3       2 UNK         0.0209 
     33 CB         21.1366   -3.5703   -3.2976 C.3       2 UNK        -0.1931 
     34 N          23.6281   -3.8229   -3.1296 N.am      2 UNK        -0.4546 
     35 C          24.0910   -3.7859   -4.3873 C.2       1 UNK         0.5154 
     36 O          23.5009   -3.2348   -5.3223 O.2       1 UNK        -0.5181 
     37 C          29.3292    1.6600   -4.2137 C.2       5 UNK         0.5014 
     38 O          30.2050    2.4644   -4.5361 O.2       5 UNK        -0.5248 
     39 N          28.1151    1.6354   -4.7815 N.am      6 UNK        -0.4434 
     40 CA         27.6455    2.5792   -5.7993 C.3       6 UNK         0.0363 
     41 CB         26.7872    3.6589   -5.1143 C.3       6 UNK        -0.1936 
     42 C          26.8799    1.8849   -6.9393 C.2       6 UNK         0.5081 
     43 O          26.2939    2.5751   -7.7740 O.2       6 UNK        -0.5248 
     44 N          26.8827    0.5444   -6.9690 N.am      7 UNK        -0.4718 
     45 CA         26.1685   -0.2706   -7.9580 C.3       7 UNK         0.0273 
     46 CB         26.1090   -1.7208   -7.4590 C.3       7 UNK        -0.1935 
     47 C          26.7614   -0.2109   -9.3772 C.2       7 UNK         0.5018 
     48 O          26.0429   -0.4862  -10.3393 O.2       7 UNK        -0.5186 
     49 N          28.0441    0.1460   -9.4877 N.am      8 UNK        -0.4240 
     50 CA         28.7725    0.3396  -10.7352 C.3       8 UNK         0.0235 
     51 CB         29.3437   -1.0067  -11.2177 C.3       8 UNK        -0.2000 
     52 C          29.8962    1.3444  -10.4734 C.2       8 UNK         0.4941 
     53 O          30.3280    1.4850   -9.3268 O.2       8 UNK        -0.5273 
     54 N          30.3970    1.9838  -11.5396 N.am      9 UNK        -0.4262 
     55 CA         31.5289    2.9209  -11.4879 C.3       9 UNK         0.0264 
     56 CB         31.7395    3.5513  -12.8739 C.3       9 UNK        -0.1955 
     57 C          32.8341    2.2773  -10.9822 C.2       9 UNK         0.5031 
     58 O          33.6317    2.9502  -10.3276 O.2       9 UNK        -0.5390 
     59 N          32.9970    0.9728  -11.2471 N.am      10 UNK        -0.4204 
     60 CA         34.0852    0.1288  -10.7492 C.3       10 UNK         0.0237 
     61 CB         33.9945   -1.2509  -11.4223 C.3       10 UNK        -0.1985 
     62 C          34.1126   -0.0258   -9.2160 C.2       10 UNK         0.4970 
     63 O          35.1723   -0.3449   -8.6753 O.2       10 UNK        -0.4914 
     64 N          32.9749    0.2014   -8.5438 N.am      11 UNK        -0.4285 
     65 CA         32.8704    0.2038   -7.0783 C.3       11 UNK         0.1007 
     66 C          33.4230    1.4941   -6.4054 C.2       11 UNK         0.5703 
     67 N          33.7427    2.5535   -7.1424 N.am      11 UNK        -0.7361 
     68 O          33.5920    1.5214   -5.1888 O.2       11 UNK        -0.4986 
     69 C69        31.4297   -0.1072   -6.5939 C.3       12 UNK        -0.0947 
     70 S70        30.7464   -1.6736   -7.2377 S.3       12 UNK        -0.2240 
     71 C71        31.6706   -2.9255   -6.2862 C.3       12 UNK         0.0194 
     72 H72        27.2809   -5.4349   -8.5966 H         1 UNK         0.0906 
     73 H73        26.2086   -6.8170   -8.3537 H         1 UNK         0.0906 
     74 H74        25.5326   -5.1998   -8.5606 H         1 UNK         0.0906 
     75 H75        24.8161   -4.3108   -6.6024 H         1 UNK         0.3140 
     76 H76        25.5397   -5.3399   -4.0732 H         1 UNK         0.1085 
     77 H77        27.4938   -3.5855   -4.8264 H         1 UNK         0.0836 
     78 H78        26.3392   -2.3962   -4.3657 H         1 UNK         0.0836 
     79 H79        28.8428   -5.0982   -1.6650 H         1 UNK         0.0731 
     80 H80        28.4451   -5.4590   -3.3253 H         1 UNK         0.0731 
     81 H81        29.6608   -4.3585   -5.1416 H         1 UNK         0.1312 
     82 H82        32.7792   -1.5754   -4.1875 H         1 UNK         0.1406 
     83 H83        30.1664   -3.0054   -1.1023 H         1 UNK         0.1631 
     84 H84        33.1076   -0.7921   -1.9698 H         1 UNK         0.0717 
     85 H85        32.6641   -1.9363   -0.7258 H         1 UNK         0.0717 
     86 H86        30.5929    2.0332   -1.7573 H         1 UNK         0.0934 
     87 H87        31.7179    1.1620   -2.7624 H         1 UNK         0.0934 
     88 H88        29.9465   -0.2689   -3.6528 H         1 UNK         0.0739 
     89 H89        28.1745   -0.7891   -2.5246 H         1 UNK         0.3093 
     90 H90        26.5889   -0.8688   -1.0802 H         1 UNK         0.0818 
     91 H91        25.3490   -0.0062    0.8512 H         1 UNK         0.0819 
     92 H92        27.0351    0.4594    1.0021 H         1 UNK         0.0819 
     93 H93        25.8448    1.6484    0.4924 H         1 UNK         0.0819 
     94 H94        24.3138    0.5417   -1.2790 H         1 UNK         0.3041 
     95 H95        22.9520    1.0141   -3.0181 H         1 UNK         0.0784 
     96 H96        22.4041    0.9355   -5.4380 H         1 UNK         0.0793 
     97 H97        23.8735    1.8679   -5.1971 H         1 UNK         0.0793 
     98 H98        23.9717    0.2226   -5.8071 H         1 UNK         0.0793 
     99 H99        23.1467   -1.5857   -4.4256 H         1 UNK         0.3024 
    100 H100       22.3540   -3.5125   -1.5444 H         1 UNK         0.1171 
    101 H101       21.0991   -3.2066   -4.3246 H         1 UNK         0.0786 
    102 H102       20.2643   -3.1649   -2.7832 H         1 UNK         0.0786 
    103 H103       21.0233   -4.6541   -3.3214 H         1 UNK         0.0786 
    104 H104       24.2223   -4.2607   -2.4375 H         1 UNK         0.2977 
    105 H105       27.4143    0.9801   -4.4334 H         1 UNK         0.3127 
    106 H106       28.4979    3.0685   -6.2752 H         1 UNK         0.0770 
    107 H107       25.9103    3.2258   -4.6323 H         1 UNK         0.0814 
    108 H108       26.4364    4.4021   -5.8313 H         1 UNK         0.0814 
    109 H109       27.3573    4.1905   -4.3521 H         1 UNK         0.0814 
    110 H110       27.3794    0.0476   -6.2446 H         1 UNK         0.2983 
    111 H111       25.1458    0.1064   -8.0278 H         1 UNK         0.0947 
    112 H112       25.5917   -2.3613   -8.1745 H         1 UNK         0.0806 
    113 H113       25.5615   -1.7821   -6.5196 H         1 UNK         0.0806 
    114 H114       27.1041   -2.1397   -7.3026 H         1 UNK         0.0806 
    115 H115       28.5646    0.4015   -8.6573 H         1 UNK         0.3000 
    116 H116       28.1009    0.7544  -11.4901 H         1 UNK         0.0850 
    117 H117       30.0298   -1.4369  -10.4863 H         1 UNK         0.0810 
    118 H118       28.5501   -1.7327  -11.3956 H         1 UNK         0.0810 
    119 H119       29.8903   -0.8925  -12.1543 H         1 UNK         0.0810 
    120 H120       29.9885    1.8148  -12.4484 H         1 UNK         0.3040 
    121 H121       31.2668    3.7157  -10.7861 H         1 UNK         0.0766 
    122 H122       30.8517    4.0909  -13.2042 H         1 UNK         0.0812 
    123 H123       31.9786    2.8013  -13.6289 H         1 UNK         0.0812 
    124 H124       32.5622    4.2678  -12.8548 H         1 UNK         0.0812 
    125 H125       32.2864    0.5139  -11.7974 H         1 UNK         0.3205 
    126 H126       35.0272    0.5958  -11.0444 H         1 UNK         0.0754 
    127 H127       34.8113   -1.8979  -11.0989 H         1 UNK         0.0769 
    128 H128       34.0599   -1.1697  -12.5075 H         1 UNK         0.0769 
    129 H129       33.0606   -1.7590  -11.1772 H         1 UNK         0.0769 
    130 H130       32.1412    0.4970   -9.0378 H         1 UNK         0.2981 
    131 H131       33.5095   -0.5982   -6.7070 H         1 UNK         0.0541 
    132 H132       34.1070    3.3744   -6.6865 H         1 UNK         0.3459 
    133 H133       33.6281    2.5448   -8.1475 H         1 UNK         0.3459 
    134 H134       30.7536    0.6961   -6.8884 H         1 UNK         0.0612 
    135 H135       31.3908   -0.1310   -5.5072 H         1 UNK         0.0612 
    136 H136       31.4888   -3.9019   -6.7375 H         1 UNK         0.0624 
    137 H137       32.7426   -2.7502   -6.3799 H         1 UNK         0.0624 
@<TRIPOS>BOND
     1    1    2 1    
     2    1   72 1    
     3    1   73 1    
     4    1   74 1    
     5    2    3 2    
     6    2    4 am   BACKBONE|DICT|INTERRES
     7    4    5 1    
     8    4   75 1    
     9    5    6 1    
    10    5   35 1    
    11    5   76 1    
    12    6    7 1    
    13    6   77 1    
    14    6   78 1    
    15    7    8 1    
    16    8    9 1    
    17    8   79 1    
    18    8   80 1    
    19    9   10 ar   
    20    9   14 ar   
    21   10   11 ar   
    22   10   81 1    
    23   11   12 ar   
    24   11   71 1    
    25   12   13 ar   
    26   12   82 1    
    27   13   14 ar   
    28   13   15 1    
    29   14   83 1    
    30   15   16 1    
    31   15   84 1    
    32   15   85 1    
    33   16   17 1    
    34   17   18 1    
    35   17   86 1    
    36   17   87 1    
    37   18   19 1    
    38   18   37 1    
    39   18   88 1    
    40   19   20 am   BACKBONE|DICT|INTERRES
    41   19   89 1    
    42   20   21 2    
    43   20   22 1    
    44   22   23 1    
    45   22   24 1    
    46   22   90 1    
    47   23   91 1    
    48   23   92 1    
    49   23   93 1    
    50   24   25 am   BACKBONE|DICT|INTERRES
    51   24   94 1    
    52   25   26 2    
    53   25   27 1    
    54   27   28 1    
    55   27   29 1    
    56   27   95 1    
    57   28   96 1    
    58   28   97 1    
    59   28   98 1    
    60   29   30 am   BACKBONE|DICT|INTERRES
    61   29   99 1    
    62   30   31 2    
    63   30   32 1    
    64   32   33 1    
    65   32   34 1    
    66   32  100 1    
    67   33  101 1    
    68   33  102 1    
    69   33  103 1    
    70   34   35 am   BACKBONE|DICT|INTERRES
    71   34  104 1    
    72   35   36 2    
    73   37   38 2    
    74   37   39 am   BACKBONE|DICT|INTERRES
    75   39   40 1    
    76   39  105 1    
    77   40   41 1    
    78   40   42 1    
    79   40  106 1    
    80   41  107 1    
    81   41  108 1    
    82   41  109 1    
    83   42   43 2    
    84   42   44 am   BACKBONE|DICT|INTERRES
    85   44   45 1    
    86   44  110 1    
    87   45   46 1    
    88   45   47 1    
    89   45  111 1    
    90   46  112 1    
    91   46  113 1    
    92   46  114 1    
    93   47   48 2    
    94   47   49 am   BACKBONE|DICT|INTERRES
    95   49   50 1    
    96   49  115 1    
    97   50   51 1    
    98   50   52 1    
    99   50  116 1    
   100   51  117 1    
   101   51  118 1    
   102   51  119 1    
   103   52   53 2    
   104   52   54 am   BACKBONE|DICT|INTERRES
   105   54   55 1    
   106   54  120 1    
   107   55   56 1    
   108   55   57 1    
   109   55  121 1    
   110   56  122 1    
   111   56  123 1    
   112   56  124 1    
   113   57   58 2    
   114   57   59 am   BACKBONE|DICT|INTERRES
   115   59   60 1    
   116   59  125 1    
   117   60   61 1    
   118   60   62 1    
   119   60  126 1    
   120   61  127 1    
   121   61  128 1    
   122   61  129 1    
   123   62   63 2    
   124   62   64 am   BACKBONE|DICT|INTERRES
   125   64   65 1    
   126   64  130 1    
   127   65   66 1    
   128   65   69 1    
   129   65  131 1    
   130   66   67 am   BACKBONE|DICT|INTERRES
   131   66   68 2    
   132   67  132 1    
   133   67  133 1    
   134   69   70 1    
   135   69  134 1    
   136   69  135 1    
   137   70   71 1    
   138   71  136 1    
   139   71  137 1    
@<TRIPOS>SUBSTRUCTURE
     1 UNK         1 GROUP             0       ****    0 ROOT    
