@<TRIPOS>MOLECULE
3R137
137   139    1
SMALL
USER_CHARGES


@<TRIPOS>ATOM
      1 CA         25.9733   -6.1594   -6.1658 C.3       0 UNK        -0.2020 
      2 C          26.0109   -5.8182   -4.6841 C.2       0 UNK         0.4855 
      3 O          24.9664   -5.5382   -4.0942 O.2       0 UNK        -0.5197 
      4 N          27.2094   -5.8331   -4.0833 N.am      1 UNK        -0.4892 
      5 CA         27.4826   -5.4778   -2.6849 C.3       1 UNK         0.0835 
      6 C6         28.9883   -5.6625   -2.3658 C.3       12 UNK        -0.0855 
      7 S7         29.3811   -5.4794   -0.5913 S.3       12 UNK        -0.2931 
      8 C8         30.9458   -4.5350   -0.6421 C.3       12 UNK         0.0378 
      9 C9         30.8162   -3.1591   -1.2916 C.ar      12 UNK        -0.0802 
     10 C10        31.7224   -2.7633   -2.2816 C.ar      12 UNK        -0.0944 
     11 C11        31.6225   -1.5035   -2.8811 C.ar      12 UNK        -0.0787 
     12 C12        30.5941   -0.6420   -2.4850 C.ar      12 UNK        -0.0862 
     13 C13        29.6769   -1.0191   -1.4959 C.ar      12 UNK        -0.0733 
     14 C14        29.8081   -2.2746   -0.8956 C.ar      12 UNK        -0.0832 
     15 C15        28.5081   -0.1254   -1.0829 C.3       12 UNK         0.0240 
     16 S16        28.7896    1.6583   -1.3462 S.3       12 UNK        -0.2522 
     17 C17        27.3839    2.1203   -2.4099 C.3       12 UNK        -0.0967 
     18 CA         27.6924    1.9657   -3.9224 C.3       5 UNK         0.0660 
     19 N          27.6428    0.5670   -4.3687 N.am      5 UNK        -0.4015 
     20 C          28.0355    0.1394   -5.5794 C.2       4 UNK         0.4946 
     21 O          28.5618    0.8639   -6.4210 O.2       4 UNK        -0.5353 
     22 CA         27.7149   -1.3158   -5.9587 C.3       4 UNK         0.0277 
     23 CB         28.9003   -2.2476   -5.6632 C.3       4 UNK        -0.1981 
     24 N          26.4964   -1.8085   -5.3121 N.am      4 UNK        -0.4209 
     25 C          25.2660   -1.3678   -5.6215 C.2       3 UNK         0.4942 
     26 O          25.0604   -0.5156   -6.4861 O.2       3 UNK        -0.5208 
     27 CA         24.0644   -1.9247   -4.8362 C.3       3 UNK         0.0250 
     28 CB         23.2914   -2.9455   -5.6852 C.3       3 UNK        -0.1990 
     29 N          24.4303   -2.5275   -3.5526 N.am      3 UNK        -0.4232 
     30 C          24.8271   -1.8251   -2.4803 C.2       2 UNK         0.4993 
     31 O          24.8834   -0.5951   -2.4562 O.2       2 UNK        -0.5286 
     32 CA         25.2989   -2.6233   -1.2482 C.3       2 UNK         0.0209 
     33 CB         24.1240   -2.8729   -0.2898 C.3       2 UNK        -0.1931 
     34 N          25.9488   -3.9018   -1.5664 N.am      2 UNK        -0.4546 
     35 C          26.9949   -4.0439   -2.3933 C.2       1 UNK         0.5154 
     36 O          27.5246   -3.1007   -2.9778 O.2       1 UNK        -0.5181 
     37 C          26.7518    2.8679   -4.7501 C.2       5 UNK         0.5014 
     38 O          27.1037    4.0196   -5.0084 O.2       5 UNK        -0.5248 
     39 N          25.5831    2.3426   -5.1493 N.am      6 UNK        -0.4434 
     40 CA         24.6187    3.0451   -5.9981 C.3       6 UNK         0.0363 
     41 CB         23.2331    2.3906   -5.8706 C.3       6 UNK        -0.1936 
     42 C          25.0748    3.0935   -7.4653 C.2       6 UNK         0.5081 
     43 O          24.9297    4.1339   -8.1075 O.2       6 UNK        -0.5248 
     44 N          25.6239    1.9771   -7.9659 N.am      7 UNK        -0.4718 
     45 CA         26.1705    1.8598   -9.3211 C.3       7 UNK         0.0273 
     46 CB         26.4046    0.3772   -9.6484 C.3       7 UNK        -0.1935 
     47 C          27.4656    2.6650   -9.5276 C.2       7 UNK         0.5018 
     48 O          27.6822    3.1825  -10.6244 O.2       7 UNK        -0.5186 
     49 N          28.3070    2.7345   -8.4854 N.am      8 UNK        -0.4240 
     50 CA         29.6116    3.4008   -8.3794 C.3       8 UNK         0.0235 
     51 CB         29.5071    4.9172   -8.6328 C.3       8 UNK        -0.2000 
     52 C          30.7076    2.7515   -9.2395 C.2       8 UNK         0.4941 
     53 O          31.7479    2.3663   -8.7053 O.2       8 UNK        -0.5273 
     54 N          30.4492    2.6059  -10.5459 N.am      9 UNK        -0.4262 
     55 CA         31.3445    1.9883  -11.5306 C.3       9 UNK         0.0264 
     56 CB         30.7524    2.1708  -12.9369 C.3       9 UNK        -0.1955 
     57 C          31.6325    0.5016  -11.2562 C.2       9 UNK         0.5031 
     58 O          32.7054    0.0164  -11.6179 O.2       9 UNK        -0.5390 
     59 N          30.6915   -0.1821  -10.5889 N.am      10 UNK        -0.4204 
     60 CA         30.7954   -1.5755  -10.1467 C.3       10 UNK         0.0237 
     61 CB         29.4610   -1.9962   -9.5123 C.3       10 UNK        -0.1985 
     62 C          31.9570   -1.8416   -9.1703 C.2       10 UNK         0.4970 
     63 O          32.4514   -2.9688   -9.1283 O.2       10 UNK        -0.4914 
     64 N          32.3786   -0.8133   -8.4226 N.am      11 UNK        -0.4285 
     65 CA         33.5510   -0.8547   -7.5368 C.3       11 UNK         0.1007 
     66 C          34.9077   -0.6672   -8.2793 C.2       11 UNK         0.5703 
     67 N          34.9381   -0.4009   -9.5813 N.am      11 UNK        -0.7361 
     68 O          35.9632   -0.7824   -7.6608 O.2       11 UNK        -0.4986 
     69 C69        33.4092    0.1382   -6.3537 C.3       12 UNK        -0.0947 
     70 S70        31.9269   -0.1897   -5.3439 S.3       12 UNK        -0.2240 
     71 C71        32.6532   -1.0706   -3.9221 C.3       12 UNK         0.0194 
     72 H72        25.1887   -6.8892   -6.3636 H         1 UNK         0.0906 
     73 H73        25.7638   -5.2652   -6.7519 H         1 UNK         0.0906 
     74 H74        26.9181   -6.5786   -6.5113 H         1 UNK         0.0906 
     75 H75        28.0250   -6.0544   -4.6362 H         1 UNK         0.3140 
     76 H76        26.9155   -6.1720   -2.0611 H         1 UNK         0.1085 
     77 H77        29.5882   -4.9685   -2.9579 H         1 UNK         0.0836 
     78 H78        29.3097   -6.6617   -2.6640 H         1 UNK         0.0836 
     79 H79        31.6950   -5.1369   -1.1588 H         1 UNK         0.0731 
     80 H80        31.3084   -4.4045    0.3783 H         1 UNK         0.0731 
     81 H81        32.5154   -3.4352   -2.5806 H         1 UNK         0.1312 
     82 H82        30.5095    0.3238   -2.9613 H         1 UNK         0.1406 
     83 H83        29.1025   -2.5807   -0.1354 H         1 UNK         0.1631 
     84 H84        28.2815   -0.2754   -0.0263 H         1 UNK         0.0717 
     85 H85        27.6277   -0.4509   -1.6352 H         1 UNK         0.0717 
     86 H86        26.4895    1.5638   -2.1242 H         1 UNK         0.0934 
     87 H87        27.1653    3.1629   -2.1677 H         1 UNK         0.0934 
     88 H88        28.7067    2.3279   -4.1064 H         1 UNK         0.0739 
     89 H89        27.2135   -0.0975   -3.7413 H         1 UNK         0.3093 
     90 H90        27.5361   -1.3440   -7.0340 H         1 UNK         0.0818 
     91 H91        28.6490   -3.2909   -5.8532 H         1 UNK         0.0819 
     92 H92        29.7528   -1.9995   -6.2956 H         1 UNK         0.0819 
     93 H93        29.2364   -2.1646   -4.6296 H         1 UNK         0.0819 
     94 H94        26.6294   -2.4514   -4.5355 H         1 UNK         0.3041 
     95 H95        23.3967   -1.0841   -4.6350 H         1 UNK         0.0784 
     96 H96        22.9539   -2.4974   -6.6209 H         1 UNK         0.0793 
     97 H97        23.9057   -3.8079   -5.9420 H         1 UNK         0.0793 
     98 H98        22.4060   -3.3079   -5.1625 H         1 UNK         0.0793 
     99 H99        24.4579   -3.5415   -3.5134 H         1 UNK         0.3024 
    100 H100       26.0352   -2.0074   -0.7291 H         1 UNK         0.1171 
    101 H101       24.4587   -3.3399    0.6367 H         1 UNK         0.0786 
    102 H102       23.6352   -1.9357   -0.0189 H         1 UNK         0.0786 
    103 H103       23.3669   -3.5176   -0.7382 H         1 UNK         0.0786 
    104 H104       25.5402   -4.7291   -1.1557 H         1 UNK         0.2977 
    105 H105       25.3727    1.3816   -4.9206 H         1 UNK         0.3127 
    106 H106       24.5339    4.0745   -5.6425 H         1 UNK         0.0770 
    107 H107       23.2305    1.3611   -6.2286 H         1 UNK         0.0814 
    108 H108       22.4926    2.9374   -6.4559 H         1 UNK         0.0814 
    109 H109       22.8890    2.3873   -4.8363 H         1 UNK         0.0814 
    110 H110       25.6313    1.1398   -7.3899 H         1 UNK         0.2983 
    111 H111       25.4270    2.2505  -10.0195 H         1 UNK         0.0947 
    112 H112       27.1374   -0.0687   -8.9774 H         1 UNK         0.0806 
    113 H113       26.7734    0.2536  -10.6676 H         1 UNK         0.0806 
    114 H114       25.4823   -0.1982   -9.5644 H         1 UNK         0.0806 
    115 H115       28.0806    2.1672   -7.6705 H         1 UNK         0.3000 
    116 H116       29.9156    3.2670   -7.3396 H         1 UNK         0.0850 
    117 H117       30.4658    5.4064   -8.4562 H         1 UNK         0.0810 
    118 H118       28.7798    5.3775   -7.9636 H         1 UNK         0.0810 
    119 H119       29.2110    5.1464   -9.6567 H         1 UNK         0.0810 
    120 H120       29.5401    2.9255  -10.8735 H         1 UNK         0.3040 
    121 H121       32.2986    2.5175  -11.4867 H         1 UNK         0.0766 
    122 H122       31.4062    1.7378  -13.6955 H         1 UNK         0.0812 
    123 H123       30.6295    3.2260  -13.1815 H         1 UNK         0.0812 
    124 H124       29.7783    1.6889  -13.0309 H         1 UNK         0.0812 
    125 H125       29.8506    0.3132  -10.3337 H         1 UNK         0.3205 
    126 H126       30.9677   -2.1909  -11.0322 H         1 UNK         0.0754 
    127 H127       29.4979   -3.0295   -9.1639 H         1 UNK         0.0769 
    128 H128       28.6394   -1.9250  -10.2253 H         1 UNK         0.0769 
    129 H129       29.2207   -1.3698   -8.6538 H         1 UNK         0.0769 
    130 H130       31.9390    0.0925   -8.5232 H         1 UNK         0.2981 
    131 H131       33.6018   -1.8544   -7.1012 H         1 UNK         0.0541 
    132 H132       35.8305   -0.2913  -10.0356 H         1 UNK         0.3459 
    133 H133       34.0866   -0.3122  -10.1234 H         1 UNK         0.3459 
    134 H134       34.2885    0.1045   -5.7080 H         1 UNK         0.0612 
    135 H135       33.3460    1.1624   -6.7251 H         1 UNK         0.0612 
    136 H136       33.1996   -1.9366   -4.2988 H         1 UNK         0.0624 
    137 H137       33.3842   -0.4225   -3.4373 H         1 UNK         0.0624 
@<TRIPOS>BOND
     1    1    2 1    
     2    1   72 1    
     3    1   73 1    
     4    1   74 1    
     5    2    3 2    
     6    2    4 am   BACKBONE|DICT|INTERRES
     7    4    5 1    
     8    4   75 1    
     9    5    6 1    
    10    5   35 1    
    11    5   76 1    
    12    6    7 1    
    13    6   77 1    
    14    6   78 1    
    15    7    8 1    
    16    8    9 1    
    17    8   79 1    
    18    8   80 1    
    19    9   10 ar   
    20    9   14 ar   
    21   10   11 ar   
    22   10   81 1    
    23   11   12 ar   
    24   11   71 1    
    25   12   13 ar   
    26   12   82 1    
    27   13   14 ar   
    28   13   15 1    
    29   14   83 1    
    30   15   16 1    
    31   15   84 1    
    32   15   85 1    
    33   16   17 1    
    34   17   18 1    
    35   17   86 1    
    36   17   87 1    
    37   18   19 1    
    38   18   37 1    
    39   18   88 1    
    40   19   20 am   BACKBONE|DICT|INTERRES
    41   19   89 1    
    42   20   21 2    
    43   20   22 1    
    44   22   23 1    
    45   22   24 1    
    46   22   90 1    
    47   23   91 1    
    48   23   92 1    
    49   23   93 1    
    50   24   25 am   BACKBONE|DICT|INTERRES
    51   24   94 1    
    52   25   26 2    
    53   25   27 1    
    54   27   28 1    
    55   27   29 1    
    56   27   95 1    
    57   28   96 1    
    58   28   97 1    
    59   28   98 1    
    60   29   30 am   BACKBONE|DICT|INTERRES
    61   29   99 1    
    62   30   31 2    
    63   30   32 1    
    64   32   33 1    
    65   32   34 1    
    66   32  100 1    
    67   33  101 1    
    68   33  102 1    
    69   33  103 1    
    70   34   35 am   BACKBONE|DICT|INTERRES
    71   34  104 1    
    72   35   36 2    
    73   37   38 2    
    74   37   39 am   BACKBONE|DICT|INTERRES
    75   39   40 1    
    76   39  105 1    
    77   40   41 1    
    78   40   42 1    
    79   40  106 1    
    80   41  107 1    
    81   41  108 1    
    82   41  109 1    
    83   42   43 2    
    84   42   44 am   BACKBONE|DICT|INTERRES
    85   44   45 1    
    86   44  110 1    
    87   45   46 1    
    88   45   47 1    
    89   45  111 1    
    90   46  112 1    
    91   46  113 1    
    92   46  114 1    
    93   47   48 2    
    94   47   49 am   BACKBONE|DICT|INTERRES
    95   49   50 1    
    96   49  115 1    
    97   50   51 1    
    98   50   52 1    
    99   50  116 1    
   100   51  117 1    
   101   51  118 1    
   102   51  119 1    
   103   52   53 2    
   104   52   54 am   BACKBONE|DICT|INTERRES
   105   54   55 1    
   106   54  120 1    
   107   55   56 1    
   108   55   57 1    
   109   55  121 1    
   110   56  122 1    
   111   56  123 1    
   112   56  124 1    
   113   57   58 2    
   114   57   59 am   BACKBONE|DICT|INTERRES
   115   59   60 1    
   116   59  125 1    
   117   60   61 1    
   118   60   62 1    
   119   60  126 1    
   120   61  127 1    
   121   61  128 1    
   122   61  129 1    
   123   62   63 2    
   124   62   64 am   BACKBONE|DICT|INTERRES
   125   64   65 1    
   126   64  130 1    
   127   65   66 1    
   128   65   69 1    
   129   65  131 1    
   130   66   67 am   BACKBONE|DICT|INTERRES
   131   66   68 2    
   132   67  132 1    
   133   67  133 1    
   134   69   70 1    
   135   69  134 1    
   136   69  135 1    
   137   70   71 1    
   138   71  136 1    
   139   71  137 1    
@<TRIPOS>SUBSTRUCTURE
     1 UNK         1 GROUP             0       ****    0 ROOT    
