@<TRIPOS>MOLECULE
3R137
137   139    1
SMALL
USER_CHARGES


@<TRIPOS>ATOM
      1 CA         26.4321   -5.7547    1.0995 C.3       0 UNK        -0.2020 
      2 C          26.7959   -4.5547    0.2387 C.2       0 UNK         0.4855 
      3 O          26.7355   -3.4183    0.7108 O.2       0 UNK        -0.5197 
      4 N          27.1669   -4.7907   -1.0260 N.am      1 UNK        -0.4892 
      5 CA         27.5565   -3.7674   -2.0049 C.3       1 UNK         0.0835 
      6 C6         28.5173   -4.3414   -3.0823 C.3       12 UNK        -0.0855 
      7 S7         30.0453   -5.0255   -2.3407 S.3       12 UNK        -0.2931 
      8 C8         31.3597   -4.3904   -3.4427 C.3       12 UNK         0.0378 
      9 C9         31.8138   -2.9480   -3.1909 C.ar      12 UNK        -0.0802 
     10 C10        33.0726   -2.5476   -3.6556 C.ar      12 UNK        -0.0944 
     11 C11        33.5257   -1.2375   -3.4657 C.ar      12 UNK        -0.0787 
     12 C12        32.7038   -0.3146   -2.8122 C.ar      12 UNK        -0.0862 
     13 C13        31.4483   -0.6972   -2.3347 C.ar      12 UNK        -0.0733 
     14 C14        31.0152   -2.0102   -2.5252 C.ar      12 UNK        -0.0832 
     15 C15        30.5787    0.2940   -1.5735 C.3       12 UNK         0.0240 
     16 S16        29.6763    1.4215   -2.6807 S.3       12 UNK        -0.2522 
     17 C17        28.3172    0.3770   -3.3140 C.3       12 UNK        -0.0967 
     18 CA         28.0833    0.5803   -4.8316 C.3       5 UNK         0.0660 
     19 N          27.2695   -0.4866   -5.4155 N.am      5 UNK        -0.4015 
     20 C          27.2059   -0.7433   -6.7293 C.2       4 UNK         0.4946 
     21 O          27.9111   -0.1862   -7.5715 O.2       4 UNK        -0.5353 
     22 CA         26.1644   -1.7719   -7.1941 C.3       4 UNK         0.0277 
     23 CB         26.7623   -3.1868   -7.2087 C.3       4 UNK        -0.1981 
     24 N          24.9466   -1.7432   -6.3798 N.am      4 UNK        -0.4209 
     25 C          24.0670   -0.7302   -6.4063 C.2       3 UNK         0.4942 
     26 O          24.1903    0.2580   -7.1271 O.2       3 UNK        -0.5208 
     27 CA         22.8689   -0.7975   -5.4467 C.3       3 UNK         0.0250 
     28 CB         21.6950   -1.5368   -6.1077 C.3       3 UNK        -0.1990 
     29 N          23.1668   -1.4135   -4.1531 N.am      3 UNK        -0.4232 
     30 C          24.1112   -1.0160   -3.2886 C.2       2 UNK         0.4993 
     31 O          24.8882   -0.0817   -3.5013 O.2       2 UNK        -0.5286 
     32 CA         24.2269   -1.8067   -1.9707 C.3       2 UNK         0.0209 
     33 CB         23.1589   -2.9115   -1.7993 C.3       2 UNK        -0.1931 
     34 N          25.5564   -2.3883   -1.7553 N.am      2 UNK        -0.4546 
     35 C          26.2983   -3.1083   -2.6101 C.2       1 UNK         0.5154 
     36 O          26.0094   -3.2917   -3.7946 O.2       1 UNK        -0.5181 
     37 C          27.4634    1.9554   -5.1518 C.2       5 UNK         0.5014 
     38 O          28.1733    2.8394   -5.6318 O.2       5 UNK        -0.5248 
     39 N          26.1475    2.0970   -4.9253 N.am      6 UNK        -0.4434 
     40 CA         25.3824    3.3269   -5.1625 C.3       6 UNK         0.0363 
     41 CB         23.9352    3.1345   -4.6846 C.3       6 UNK        -0.1936 
     42 C          25.4096    3.8060   -6.6256 C.2       6 UNK         0.5081 
     43 O          25.5420    5.0062   -6.8660 O.2       6 UNK        -0.5248 
     44 N          25.3142    2.8649   -7.5743 N.am      7 UNK        -0.4718 
     45 CA         25.4196    3.1200   -9.0142 C.3       7 UNK         0.0273 
     46 CB         24.7474    1.9629   -9.7731 C.3       7 UNK        -0.1935 
     47 C          26.8676    3.3017   -9.5080 C.2       7 UNK         0.5018 
     48 O          27.0503    3.6693  -10.6693 O.2       7 UNK        -0.5186 
     49 N          27.8597    3.0125   -8.6499 N.am      8 UNK        -0.4240 
     50 CA         29.3004    2.9693   -8.9345 C.3       8 UNK         0.0235 
     51 CB         29.8468    4.3779   -9.2505 C.3       8 UNK        -0.2000 
     52 C          29.6695    1.9203  -10.0045 C.2       8 UNK         0.4941 
     53 O          30.5922    2.1369  -10.7924 O.2       8 UNK        -0.5273 
     54 N          28.9363    0.7998  -10.0083 N.am      9 UNK        -0.4262 
     55 CA         29.1813   -0.3655  -10.8562 C.3       9 UNK         0.0264 
     56 CB         27.8465   -1.0769  -11.1326 C.3       9 UNK        -0.1955 
     57 C          30.1812   -1.3298  -10.1992 C.2       9 UNK         0.5031 
     58 O          30.9329   -1.9969  -10.9116 O.2       9 UNK        -0.5390 
     59 N          30.1720   -1.3888   -8.8601 N.am      10 UNK        -0.4204 
     60 CA         31.1219   -2.1455   -8.0481 C.3       10 UNK         0.0237 
     61 CB         30.6079   -2.2128   -6.6020 C.3       10 UNK        -0.1985 
     62 C          32.5251   -1.5175   -8.0770 C.2       10 UNK         0.4970 
     63 O          32.6404   -0.2912   -8.1420 O.2       10 UNK        -0.4914 
     64 N          33.5409   -2.3860   -7.9797 N.am      11 UNK        -0.4285 
     65 CA         34.9823   -2.0881   -7.9349 C.3       11 UNK         0.1007 
     66 C          35.4964   -1.1082   -9.0356 C.2       11 UNK         0.5703 
     67 N          36.4807   -0.2652   -8.7508 N.am      11 UNK        -0.7361 
     68 O          35.0553   -1.1641  -10.1821 O.2       11 UNK        -0.4986 
     69 C69        35.5074   -1.8494   -6.4866 C.3       12 UNK        -0.0947 
     70 S70        34.9420   -0.3153   -5.6725 S.3       12 UNK        -0.2240 
     71 C71        34.9162   -0.8202   -3.9247 C.3       12 UNK         0.0194 
     72 H72        25.3988   -5.6750    1.4360 H         1 UNK         0.0906 
     73 H73        26.5415   -6.6939    0.5576 H         1 UNK         0.0906 
     74 H74        27.0750   -5.7938    1.9784 H         1 UNK         0.0906 
     75 H75        27.1906   -5.7420   -1.3657 H         1 UNK         0.3140 
     76 H76        28.0859   -2.9769   -1.4713 H         1 UNK         0.1085 
     77 H77        28.7808   -3.5692   -3.8081 H         1 UNK         0.0836 
     78 H78        28.0286   -5.1342   -3.6520 H         1 UNK         0.0836 
     79 H79        31.0354   -4.4971   -4.4778 H         1 UNK         0.0731 
     80 H80        32.2203   -5.0513   -3.3274 H         1 UNK         0.0731 
     81 H81        33.7064   -3.2619   -4.1621 H         1 UNK         0.1312 
     82 H82        33.0472    0.6997   -2.6592 H         1 UNK         0.1406 
     83 H83        30.0538   -2.2936   -2.1366 H         1 UNK         0.1631 
     84 H84        31.2101    0.8897   -0.9126 H         1 UNK         0.0717 
     85 H85        29.8707   -0.2241   -0.9246 H         1 UNK         0.0717 
     86 H86        28.5617   -0.6675   -3.1243 H         1 UNK         0.0934 
     87 H87        27.4126    0.5806   -2.7376 H         1 UNK         0.0934 
     88 H88        29.0590    0.5441   -5.3215 H         1 UNK         0.0739 
     89 H89        26.6130   -0.9503   -4.8009 H         1 UNK         0.3093 
     90 H90        25.8861   -1.5145   -8.2183 H         1 UNK         0.0818 
     91 H91        27.6223   -3.2370   -7.8780 H         1 UNK         0.0819 
     92 H92        26.0374   -3.9202   -7.5619 H         1 UNK         0.0819 
     93 H93        27.0995   -3.4982   -6.2196 H         1 UNK         0.0819 
     94 H94        24.8141   -2.4972   -5.7173 H         1 UNK         0.3041 
     95 H95        22.5515    0.2270   -5.2479 H         1 UNK         0.0784 
     96 H96        21.4377   -1.0820   -7.0656 H         1 UNK         0.0793 
     97 H97        21.9316   -2.5846   -6.2977 H         1 UNK         0.0793 
     98 H98        20.8007   -1.5009   -5.4851 H         1 UNK         0.0793 
     99 H99        22.5958   -2.2041   -3.8916 H         1 UNK         0.3024 
    100 H100       24.0764   -1.0741   -1.1760 H         1 UNK         0.1171 
    101 H101       23.2445   -3.3840   -0.8204 H         1 UNK         0.0786 
    102 H102       22.1478   -2.5066   -1.8627 H         1 UNK         0.0786 
    103 H103       23.2583   -3.6986   -2.5483 H         1 UNK         0.0786 
    104 H104       25.8975   -2.3453   -0.7995 H         1 UNK         0.2977 
    105 H105       25.6421    1.3185   -4.5060 H         1 UNK         0.3127 
    106 H106       25.8389    4.1098   -4.5532 H         1 UNK         0.0770 
    107 H107       23.4124    2.3888   -5.2826 H         1 UNK         0.0814 
    108 H108       23.3729    4.0658   -4.7640 H         1 UNK         0.0814 
    109 H109       23.8964    2.8186   -3.6419 H         1 UNK         0.0814 
    110 H110       25.1239    1.9036   -7.2983 H         1 UNK         0.2983 
    111 H111       24.8800    4.0407   -9.2468 H         1 UNK         0.0947 
    112 H112       24.7543    2.1406  -10.8493 H         1 UNK         0.0806 
    113 H113       23.7065    1.8426   -9.4723 H         1 UNK         0.0806 
    114 H114       25.2586    1.0156   -9.5955 H         1 UNK         0.0806 
    115 H115       27.6044    2.7556   -7.7031 H         1 UNK         0.3000 
    116 H116       29.7766    2.6324   -8.0122 H         1 UNK         0.0850 
    117 H117       30.9352    4.3677   -9.3196 H         1 UNK         0.0810 
    118 H118       29.5794    5.0900   -8.4698 H         1 UNK         0.0810 
    119 H119       29.4655    4.7583  -10.1985 H         1 UNK         0.0810 
    120 H120       28.2568    0.6779   -9.2627 H         1 UNK         0.3040 
    121 H121       29.6006   -0.0388  -11.8103 H         1 UNK         0.0766 
    122 H122       27.1362   -0.4098  -11.6213 H         1 UNK         0.0812 
    123 H123       27.3854   -1.4437  -10.2151 H         1 UNK         0.0812 
    124 H124       27.9921   -1.9348  -11.7903 H         1 UNK         0.0812 
    125 H125       29.4998   -0.8143   -8.3588 H         1 UNK         0.3205 
    126 H126       31.1769   -3.1602   -8.4483 H         1 UNK         0.0754 
    127 H127       31.3136   -2.7548   -5.9756 H         1 UNK         0.0769 
    128 H128       29.6516   -2.7294   -6.5351 H         1 UNK         0.0769 
    129 H129       30.4911   -1.2197   -6.1670 H         1 UNK         0.0769 
    130 H130       33.3160   -3.3694   -7.9537 H         1 UNK         0.2981 
    131 H131       35.4355   -3.0316   -8.2410 H         1 UNK         0.0541 
    132 H132       36.8300    0.3466   -9.4715 H         1 UNK         0.3459 
    133 H133       36.8428   -0.2001   -7.8125 H         1 UNK         0.3459 
    134 H134       35.2139   -2.6985   -5.8693 H         1 UNK         0.0612 
    135 H135       36.5983   -1.8560   -6.4745 H         1 UNK         0.0612 
    136 H136       35.6302   -1.6269   -3.7526 H         1 UNK         0.0624 
    137 H137       35.2673    0.0191   -3.3224 H         1 UNK         0.0624 
@<TRIPOS>BOND
     1    1    2 1    
     2    1   72 1    
     3    1   73 1    
     4    1   74 1    
     5    2    3 2    
     6    2    4 am   BACKBONE|DICT|INTERRES
     7    4    5 1    
     8    4   75 1    
     9    5    6 1    
    10    5   35 1    
    11    5   76 1    
    12    6    7 1    
    13    6   77 1    
    14    6   78 1    
    15    7    8 1    
    16    8    9 1    
    17    8   79 1    
    18    8   80 1    
    19    9   10 ar   
    20    9   14 ar   
    21   10   11 ar   
    22   10   81 1    
    23   11   12 ar   
    24   11   71 1    
    25   12   13 ar   
    26   12   82 1    
    27   13   14 ar   
    28   13   15 1    
    29   14   83 1    
    30   15   16 1    
    31   15   84 1    
    32   15   85 1    
    33   16   17 1    
    34   17   18 1    
    35   17   86 1    
    36   17   87 1    
    37   18   19 1    
    38   18   37 1    
    39   18   88 1    
    40   19   20 am   BACKBONE|DICT|INTERRES
    41   19   89 1    
    42   20   21 2    
    43   20   22 1    
    44   22   23 1    
    45   22   24 1    
    46   22   90 1    
    47   23   91 1    
    48   23   92 1    
    49   23   93 1    
    50   24   25 am   BACKBONE|DICT|INTERRES
    51   24   94 1    
    52   25   26 2    
    53   25   27 1    
    54   27   28 1    
    55   27   29 1    
    56   27   95 1    
    57   28   96 1    
    58   28   97 1    
    59   28   98 1    
    60   29   30 am   BACKBONE|DICT|INTERRES
    61   29   99 1    
    62   30   31 2    
    63   30   32 1    
    64   32   33 1    
    65   32   34 1    
    66   32  100 1    
    67   33  101 1    
    68   33  102 1    
    69   33  103 1    
    70   34   35 am   BACKBONE|DICT|INTERRES
    71   34  104 1    
    72   35   36 2    
    73   37   38 2    
    74   37   39 am   BACKBONE|DICT|INTERRES
    75   39   40 1    
    76   39  105 1    
    77   40   41 1    
    78   40   42 1    
    79   40  106 1    
    80   41  107 1    
    81   41  108 1    
    82   41  109 1    
    83   42   43 2    
    84   42   44 am   BACKBONE|DICT|INTERRES
    85   44   45 1    
    86   44  110 1    
    87   45   46 1    
    88   45   47 1    
    89   45  111 1    
    90   46  112 1    
    91   46  113 1    
    92   46  114 1    
    93   47   48 2    
    94   47   49 am   BACKBONE|DICT|INTERRES
    95   49   50 1    
    96   49  115 1    
    97   50   51 1    
    98   50   52 1    
    99   50  116 1    
   100   51  117 1    
   101   51  118 1    
   102   51  119 1    
   103   52   53 2    
   104   52   54 am   BACKBONE|DICT|INTERRES
   105   54   55 1    
   106   54  120 1    
   107   55   56 1    
   108   55   57 1    
   109   55  121 1    
   110   56  122 1    
   111   56  123 1    
   112   56  124 1    
   113   57   58 2    
   114   57   59 am   BACKBONE|DICT|INTERRES
   115   59   60 1    
   116   59  125 1    
   117   60   61 1    
   118   60   62 1    
   119   60  126 1    
   120   61  127 1    
   121   61  128 1    
   122   61  129 1    
   123   62   63 2    
   124   62   64 am   BACKBONE|DICT|INTERRES
   125   64   65 1    
   126   64  130 1    
   127   65   66 1    
   128   65   69 1    
   129   65  131 1    
   130   66   67 am   BACKBONE|DICT|INTERRES
   131   66   68 2    
   132   67  132 1    
   133   67  133 1    
   134   69   70 1    
   135   69  134 1    
   136   69  135 1    
   137   70   71 1    
   138   71  136 1    
   139   71  137 1    
@<TRIPOS>SUBSTRUCTURE
     1 UNK         1 GROUP             0       ****    0 ROOT    
