@<TRIPOS>MOLECULE
3R137
137   139    1
SMALL
USER_CHARGES


@<TRIPOS>ATOM
      1 CA         24.7886   -6.5173   -2.4525 C.3       0 UNK        -0.2020 
      2 C          25.6915   -5.5198   -1.7432 C.2       0 UNK         0.4855 
      3 O          25.3364   -5.0229   -0.6740 O.2       0 UNK        -0.5197 
      4 N          26.8526   -5.2081   -2.3343 N.am      1 UNK        -0.4892 
      5 CA         27.8463   -4.2577   -1.8178 C.3       1 UNK         0.0835 
      6 C6         29.2578   -4.5595   -2.4015 C.3       12 UNK        -0.0855 
      7 S7         30.6205   -4.4419   -1.1925 S.3       12 UNK        -0.2931 
      8 C8         30.6163   -2.6846   -0.6871 C.3       12 UNK         0.0378 
      9 C9         30.8960   -1.6468   -1.7774 C.ar      12 UNK        -0.0802 
     10 C10        31.4302   -1.9684   -3.0318 C.ar      12 UNK        -0.0944 
     11 C11        31.6520   -0.9759   -3.9926 C.ar      12 UNK        -0.0787 
     12 C12        31.3713    0.3595   -3.6821 C.ar      12 UNK        -0.0862 
     13 C13        30.8599    0.6997   -2.4254 C.ar      12 UNK        -0.0733 
     14 C14        30.6195   -0.3084   -1.4878 C.ar      12 UNK        -0.0832 
     15 C15        30.5753    2.1509   -2.0503 C.3       12 UNK         0.0240 
     16 S16        29.3397    2.9817   -3.1059 S.3       12 UNK        -0.2522 
     17 C17        28.0627    1.7082   -3.3979 C.3       12 UNK        -0.0967 
     18 CA         28.0114    1.3569   -4.9067 C.3       5 UNK         0.0660 
     19 N          27.8060   -0.0692   -5.1660 N.am      5 UNK        -0.4015 
     20 C          27.9043   -0.6346   -6.3787 C.2       4 UNK         0.4946 
     21 O          28.2765   -0.0343   -7.3870 O.2       4 UNK        -0.5353 
     22 CA         27.4785   -2.1028   -6.5005 C.3       4 UNK         0.0277 
     23 CB         28.6587   -3.0326   -6.1800 C.3       4 UNK        -0.1981 
     24 N          26.3360   -2.3985   -5.6315 N.am      4 UNK        -0.4209 
     25 C          25.0794   -2.0042   -5.8935 C.2       3 UNK         0.4942 
     26 O          24.7483   -1.4312   -6.9305 O.2       3 UNK        -0.5208 
     27 CA         24.0148   -2.2604   -4.8106 C.3       3 UNK         0.0250 
     28 CB         23.4030   -3.6603   -4.9799 C.3       3 UNK        -0.1990 
     29 N          24.5269   -2.1169   -3.4462 N.am      3 UNK        -0.4232 
     30 C          24.9979   -0.9799   -2.9130 C.2       2 UNK         0.4993 
     31 O          24.9936    0.1043   -3.4940 O.2       2 UNK        -0.5286 
     32 CA         25.6571   -1.0907   -1.5261 C.3       2 UNK         0.0209 
     33 CB         24.6166   -0.8895   -0.4141 C.3       2 UNK        -0.1931 
     34 N          26.3552   -2.3667   -1.3227 N.am      2 UNK        -0.4546 
     35 C          27.3626   -2.8137   -2.0854 C.2       1 UNK         0.5154 
     36 O          27.8186   -2.1630   -3.0275 O.2       1 UNK        -0.5181 
     37 C          26.9972    2.2292   -5.6724 C.2       5 UNK         0.5014 
     38 O          27.4045    3.1502   -6.3833 O.2       5 UNK        -0.5248 
     39 N          25.7074    1.8736   -5.5662 N.am      6 UNK        -0.4434 
     40 CA         24.5828    2.4964   -6.2728 C.3       6 UNK         0.0363 
     41 CB         23.2685    1.8659   -5.7869 C.3       6 UNK        -0.1936 
     42 C          24.6793    2.4153   -7.8077 C.2       6 UNK         0.5081 
     43 O          24.1493    3.2919   -8.4895 O.2       6 UNK        -0.5248 
     44 N          25.3945    1.4088   -8.3269 N.am      7 UNK        -0.4718 
     45 CA         25.7391    1.2427   -9.7422 C.3       7 UNK         0.0273 
     46 CB         25.9017   -0.2592  -10.0381 C.3       7 UNK        -0.1935 
     47 C          26.9830    2.0601  -10.1613 C.2       7 UNK         0.5018 
     48 O          27.6579    1.6817  -11.1194 O.2       7 UNK        -0.5186 
     49 N          27.2555    3.1648   -9.4495 N.am      8 UNK        -0.4240 
     50 CA         28.3653    4.1079   -9.6193 C.3       8 UNK         0.0235 
     51 CB         28.2996    4.8109  -10.9930 C.3       8 UNK        -0.2000 
     52 C          29.7302    3.4616   -9.3244 C.2       8 UNK         0.4941 
     53 O          30.6578    3.5902  -10.1259 O.2       8 UNK        -0.5273 
     54 N          29.8166    2.7911   -8.1647 N.am      9 UNK        -0.4262 
     55 CA         30.9896    2.0824   -7.6355 C.3       9 UNK         0.0264 
     56 CB         32.0932    3.0767   -7.2195 C.3       9 UNK        -0.1955 
     57 C          31.4923    0.9814   -8.5850 C.2       9 UNK         0.5031 
     58 O          32.6614    0.9765   -8.9788 O.2       9 UNK        -0.5390 
     59 N          30.5968    0.0443   -8.9187 N.am      10 UNK        -0.4204 
     60 CA         30.8457   -1.1161   -9.7780 C.3       10 UNK         0.0237 
     61 CB         29.4983   -1.6265  -10.3211 C.3       10 UNK        -0.1985 
     62 C          31.6491   -2.2184   -9.0563 C.2       10 UNK         0.4970 
     63 O          31.2108   -3.3683   -9.0000 O.2       10 UNK        -0.4914 
     64 N          32.8061   -1.8427   -8.5010 N.am      11 UNK        -0.4285 
     65 CA         33.7296   -2.7277   -7.7777 C.3       11 UNK         0.1007 
     66 C          34.5514   -3.6817   -8.6956 C.2       11 UNK         0.5703 
     67 N          34.5702   -3.4959  -10.0107 N.am      11 UNK        -0.7361 
     68 O          35.1791   -4.6158   -8.2023 O.2       11 UNK        -0.4986 
     69 C69        34.6729   -1.9217   -6.8416 C.3       12 UNK        -0.0947 
     70 S70        33.9367   -0.8607   -5.5382 S.3       12 UNK        -0.2240 
     71 C71        32.1933   -1.3583   -5.3626 C.3       12 UNK         0.0194 
     72 H72        25.1987   -6.8305   -3.4124 H         1 UNK         0.0906 
     73 H73        24.6549   -7.4050   -1.8349 H         1 UNK         0.0906 
     74 H74        23.8080   -6.0767   -2.6305 H         1 UNK         0.0906 
     75 H75        27.0837   -5.6408   -3.2178 H         1 UNK         0.3140 
     76 H76        27.8929   -4.3885   -0.7341 H         1 UNK         0.1085 
     77 H77        29.4938   -3.9650   -3.2823 H         1 UNK         0.0836 
     78 H78        29.2953   -5.5898   -2.7594 H         1 UNK         0.0836 
     79 H79        31.3718   -2.5633    0.0903 H         1 UNK         0.0731 
     80 H80        29.6599   -2.4647   -0.2113 H         1 UNK         0.0731 
     81 H81        31.6723   -2.9933   -3.2723 H         1 UNK         0.1312 
     82 H82        31.5569    1.1339   -4.4132 H         1 UNK         0.1406 
     83 H83        30.2201   -0.0489   -0.5164 H         1 UNK         0.1631 
     84 H84        31.5074    2.7157   -2.0954 H         1 UNK         0.0717 
     85 H85        30.2328    2.2196   -1.0166 H         1 UNK         0.0717 
     86 H86        28.2791    0.8229   -2.8005 H         1 UNK         0.0934 
     87 H87        27.1026    2.0704   -3.0240 H         1 UNK         0.0934 
     88 H88        28.9886    1.5733   -5.3349 H         1 UNK         0.0739 
     89 H89        27.5718   -0.6588   -4.3741 H         1 UNK         0.3093 
     90 H90        27.1778   -2.2836   -7.5347 H         1 UNK         0.0818 
     91 H91        28.3585   -4.0803   -6.1801 H         1 UNK         0.0819 
     92 H92        29.4463   -2.9214   -6.9254 H         1 UNK         0.0819 
     93 H93        29.1050   -2.8045   -5.2131 H         1 UNK         0.0819 
     94 H94        26.5476   -2.7996   -4.7282 H         1 UNK         0.3041 
     95 H95        23.2226   -1.5211   -4.9460 H         1 UNK         0.0784 
     96 H96        22.9818   -3.7819   -5.9790 H         1 UNK         0.0793 
     97 H97        24.1454   -4.4474   -4.8423 H         1 UNK         0.0793 
     98 H98        22.5952   -3.8304   -4.2677 H         1 UNK         0.0793 
     99 H99        24.5654   -2.9525   -2.8817 H         1 UNK         0.3024 
    100 H100       26.3979   -0.2915   -1.4542 H         1 UNK         0.1171 
    101 H101       25.0861   -0.8737    0.5697 H         1 UNK         0.0786 
    102 H102       24.0930    0.0599   -0.5368 H         1 UNK         0.0786 
    103 H103       23.8649   -1.6800   -0.4148 H         1 UNK         0.0786 
    104 H104       25.9666   -3.0044   -0.6360 H         1 UNK         0.2977 
    105 H105       25.4669    1.1282   -4.9125 H         1 UNK         0.3127 
    106 H106       24.5763    3.5544   -6.0034 H         1 UNK         0.0770 
    107 H107       23.2263    0.8008   -6.0167 H         1 UNK         0.0814 
    108 H108       22.4082    2.3376   -6.2637 H         1 UNK         0.0814 
    109 H109       23.1461    1.9812   -4.7097 H         1 UNK         0.0814 
    110 H110       25.7895    0.7279   -7.6913 H         1 UNK         0.2983 
    111 H111       24.9091    1.6101  -10.3493 H         1 UNK         0.0947 
    112 H112       26.7390   -0.6863   -9.4879 H         1 UNK         0.0806 
    113 H113       26.0810   -0.4381  -11.0989 H         1 UNK         0.0806 
    114 H114       25.0053   -0.8161   -9.7644 H         1 UNK         0.0806 
    115 H115       26.6594    3.3486   -8.6531 H         1 UNK         0.3000 
    116 H116       28.2263    4.8755   -8.8562 H         1 UNK         0.0850 
    117 H117       29.0506    5.5988  -11.0623 H         1 UNK         0.0810 
    118 H118       27.3272    5.2756  -11.1551 H         1 UNK         0.0810 
    119 H119       28.4824    4.1183  -11.8151 H         1 UNK         0.0810 
    120 H120       28.9788    2.7525   -7.5907 H         1 UNK         0.3040 
    121 H121       30.6691    1.5652   -6.7336 H         1 UNK         0.0766 
    122 H122       32.9295    2.5553   -6.7517 H         1 UNK         0.0812 
    123 H123       31.7199    3.8030   -6.4976 H         1 UNK         0.0812 
    124 H124       32.4897    3.6247   -8.0748 H         1 UNK         0.0812 
    125 H125       29.6722    0.0947   -8.4879 H         1 UNK         0.3205 
    126 H126       31.4443   -0.7893  -10.6308 H         1 UNK         0.0754 
    127 H127       29.6429   -2.4516  -11.0197 H         1 UNK         0.0769 
    128 H128       28.9645   -0.8407  -10.8561 H         1 UNK         0.0769 
    129 H129       28.8523   -1.9854   -9.5192 H         1 UNK         0.0769 
    130 H130       33.0839   -0.8698   -8.5961 H         1 UNK         0.2981 
    131 H131       33.1323   -3.3981   -7.1599 H         1 UNK         0.0541 
    132 H132       35.1033   -4.1249  -10.5903 H         1 UNK         0.3459 
    133 H133       34.0638   -2.7317  -10.4270 H         1 UNK         0.3459 
    134 H134       35.3438   -2.6077   -6.3210 H         1 UNK         0.0612 
    135 H135       35.3213   -1.2815   -7.4426 H         1 UNK         0.0612 
    136 H136       31.5920   -0.8841   -6.1383 H         1 UNK         0.0624 
    137 H137       32.0922   -2.4340   -5.4995 H         1 UNK         0.0624 
@<TRIPOS>BOND
     1    1    2 1    
     2    1   72 1    
     3    1   73 1    
     4    1   74 1    
     5    2    3 2    
     6    2    4 am   BACKBONE|DICT|INTERRES
     7    4    5 1    
     8    4   75 1    
     9    5    6 1    
    10    5   35 1    
    11    5   76 1    
    12    6    7 1    
    13    6   77 1    
    14    6   78 1    
    15    7    8 1    
    16    8    9 1    
    17    8   79 1    
    18    8   80 1    
    19    9   10 ar   
    20    9   14 ar   
    21   10   11 ar   
    22   10   81 1    
    23   11   12 ar   
    24   11   71 1    
    25   12   13 ar   
    26   12   82 1    
    27   13   14 ar   
    28   13   15 1    
    29   14   83 1    
    30   15   16 1    
    31   15   84 1    
    32   15   85 1    
    33   16   17 1    
    34   17   18 1    
    35   17   86 1    
    36   17   87 1    
    37   18   19 1    
    38   18   37 1    
    39   18   88 1    
    40   19   20 am   BACKBONE|DICT|INTERRES
    41   19   89 1    
    42   20   21 2    
    43   20   22 1    
    44   22   23 1    
    45   22   24 1    
    46   22   90 1    
    47   23   91 1    
    48   23   92 1    
    49   23   93 1    
    50   24   25 am   BACKBONE|DICT|INTERRES
    51   24   94 1    
    52   25   26 2    
    53   25   27 1    
    54   27   28 1    
    55   27   29 1    
    56   27   95 1    
    57   28   96 1    
    58   28   97 1    
    59   28   98 1    
    60   29   30 am   BACKBONE|DICT|INTERRES
    61   29   99 1    
    62   30   31 2    
    63   30   32 1    
    64   32   33 1    
    65   32   34 1    
    66   32  100 1    
    67   33  101 1    
    68   33  102 1    
    69   33  103 1    
    70   34   35 am   BACKBONE|DICT|INTERRES
    71   34  104 1    
    72   35   36 2    
    73   37   38 2    
    74   37   39 am   BACKBONE|DICT|INTERRES
    75   39   40 1    
    76   39  105 1    
    77   40   41 1    
    78   40   42 1    
    79   40  106 1    
    80   41  107 1    
    81   41  108 1    
    82   41  109 1    
    83   42   43 2    
    84   42   44 am   BACKBONE|DICT|INTERRES
    85   44   45 1    
    86   44  110 1    
    87   45   46 1    
    88   45   47 1    
    89   45  111 1    
    90   46  112 1    
    91   46  113 1    
    92   46  114 1    
    93   47   48 2    
    94   47   49 am   BACKBONE|DICT|INTERRES
    95   49   50 1    
    96   49  115 1    
    97   50   51 1    
    98   50   52 1    
    99   50  116 1    
   100   51  117 1    
   101   51  118 1    
   102   51  119 1    
   103   52   53 2    
   104   52   54 am   BACKBONE|DICT|INTERRES
   105   54   55 1    
   106   54  120 1    
   107   55   56 1    
   108   55   57 1    
   109   55  121 1    
   110   56  122 1    
   111   56  123 1    
   112   56  124 1    
   113   57   58 2    
   114   57   59 am   BACKBONE|DICT|INTERRES
   115   59   60 1    
   116   59  125 1    
   117   60   61 1    
   118   60   62 1    
   119   60  126 1    
   120   61  127 1    
   121   61  128 1    
   122   61  129 1    
   123   62   63 2    
   124   62   64 am   BACKBONE|DICT|INTERRES
   125   64   65 1    
   126   64  130 1    
   127   65   66 1    
   128   65   69 1    
   129   65  131 1    
   130   66   67 am   BACKBONE|DICT|INTERRES
   131   66   68 2    
   132   67  132 1    
   133   67  133 1    
   134   69   70 1    
   135   69  134 1    
   136   69  135 1    
   137   70   71 1    
   138   71  136 1    
   139   71  137 1    
@<TRIPOS>SUBSTRUCTURE
     1 UNK         1 GROUP             0       ****    0 ROOT    
