@<TRIPOS>MOLECULE
3R137
137   139    1
SMALL
USER_CHARGES


@<TRIPOS>ATOM
      1 CA         24.7437   -2.5154   -9.4959 C.3       0 UNK        -0.2020 
      2 C          25.2140   -3.6867   -8.6461 C.2       0 UNK         0.4855 
      3 O          24.6568   -4.7807   -8.7458 O.2       0 UNK        -0.5197 
      4 N          26.2445   -3.4660   -7.8226 N.am      1 UNK        -0.4892 
      5 CA         26.7983   -4.4412   -6.8798 C.3       1 UNK         0.0835 
      6 C6         28.2950   -4.1443   -6.6061 C.3       12 UNK        -0.0855 
      7 S7         28.6102   -2.5267   -5.8162 S.3       12 UNK        -0.2931 
      8 C8         29.4518   -3.0564   -4.2945 C.3       12 UNK         0.0378 
      9 C9         29.9920   -1.8605   -3.5312 C.ar      12 UNK        -0.0802 
     10 C10        31.1857   -1.2622   -3.9383 C.ar      12 UNK        -0.0944 
     11 C11        31.6881   -0.1458   -3.2652 C.ar      12 UNK        -0.0787 
     12 C12        30.9927    0.3652   -2.1651 C.ar      12 UNK        -0.0862 
     13 C13        29.8065   -0.2392   -1.7333 C.ar      12 UNK        -0.0733 
     14 C14        29.3104   -1.3526   -2.4221 C.ar      12 UNK        -0.0832 
     15 C15        29.0839    0.2904   -0.5009 C.3       12 UNK         0.0240 
     16 S16        27.3365    0.6892   -0.8202 S.3       12 UNK        -0.2522 
     17 C17        27.4666    2.1164   -1.9515 C.3       12 UNK        -0.0967 
     18 CA         27.2388    1.7466   -3.4400 C.3       5 UNK         0.0660 
     19 N          26.0216    0.9475   -3.6352 N.am      5 UNK        -0.4015 
     20 C          25.6060    0.4141   -4.7900 C.2       4 UNK         0.4946 
     21 O          26.2041    0.5625   -5.8577 O.2       4 UNK        -0.5353 
     22 CA         24.2776   -0.3654   -4.7419 C.3       4 UNK         0.0277 
     23 CB         23.8385   -0.8700   -6.1276 C.3       4 UNK        -0.1981 
     24 N          24.3204   -1.4895   -3.7987 N.am      4 UNK        -0.4209 
     25 C          24.1805   -1.3679   -2.4687 C.2       3 UNK         0.4942 
     26 O          24.0516   -0.2751   -1.9135 O.2       3 UNK        -0.5208 
     27 CA         24.1562   -2.6378   -1.5973 C.3       3 UNK         0.0250 
     28 CB         22.7887   -2.7893   -0.9081 C.3       3 UNK        -0.1990 
     29 N          24.4392   -3.8652   -2.3412 N.am      3 UNK        -0.4232 
     30 C          25.6562   -4.3935   -2.5176 C.2       2 UNK         0.4993 
     31 O          26.6883   -3.9068   -2.0556 O.2       2 UNK        -0.5286 
     32 CA         25.7476   -5.6823   -3.3611 C.3       2 UNK         0.0209 
     33 CB         24.4024   -6.4288   -3.5218 C.3       2 UNK        -0.1931 
     34 N          26.3555   -5.4361   -4.6755 N.am      2 UNK        -0.4546 
     35 C          25.9504   -4.5396   -5.5890 C.2       1 UNK         0.5154 
     36 O          24.9632   -3.8152   -5.4315 O.2       1 UNK        -0.5181 
     37 C          27.2623    3.0227   -4.3110 C.2       5 UNK         0.5014 
     38 O          28.3394    3.4688   -4.7050 O.2       5 UNK        -0.5248 
     39 N          26.0752    3.5767   -4.6031 N.am      6 UNK        -0.4434 
     40 CA         25.8772    4.7205   -5.4947 C.3       6 UNK         0.0363 
     41 CB         24.4840    5.3199   -5.2439 C.3       6 UNK        -0.1936 
     42 C          26.0497    4.3720   -6.9851 C.2       6 UNK         0.5081 
     43 O          26.3925    5.2616   -7.7646 O.2       6 UNK        -0.5248 
     44 N          25.8112    3.1066   -7.3647 N.am      7 UNK        -0.4718 
     45 CA         26.0613    2.6018   -8.7189 C.3       7 UNK         0.0273 
     46 CB         25.1921    1.3645   -8.9951 C.3       7 UNK        -0.1935 
     47 C          27.5506    2.2833   -8.9197 C.2       7 UNK         0.5018 
     48 O          28.0804    2.5530   -9.9985 O.2       7 UNK        -0.5186 
     49 N          28.1948    1.7658   -7.8614 N.am      8 UNK        -0.4240 
     50 CA         29.6316    1.5095   -7.7392 C.3       8 UNK         0.0235 
     51 CB         30.4153    2.8443   -7.7258 C.3       8 UNK        -0.2000 
     52 C          30.1269    0.4908   -8.7830 C.2       8 UNK         0.4941 
     53 O          29.6601   -0.6491   -8.7720 O.2       8 UNK        -0.5273 
     54 N          31.0867    0.8913   -9.6318 N.am      9 UNK        -0.4262 
     55 CA         31.7775    0.1232  -10.6817 C.3       9 UNK         0.0264 
     56 CB         30.7940   -0.4246  -11.7346 C.3       9 UNK        -0.1955 
     57 C          32.6985   -0.9868  -10.1435 C.2       9 UNK         0.5031 
     58 O          33.8463   -1.0828  -10.5796 O.2       9 UNK        -0.5390 
     59 N          32.2093   -1.7682   -9.1732 N.am      10 UNK        -0.4204 
     60 CA         32.9520   -2.8018   -8.4453 C.3       10 UNK         0.0237 
     61 CB         31.9583   -3.6427   -7.6278 C.3       10 UNK        -0.1985 
     62 C          34.0668   -2.2491   -7.5348 C.2       10 UNK         0.4970 
     63 O          34.9210   -3.0231   -7.1015 O.2       10 UNK        -0.4914 
     64 N          34.0412   -0.9387   -7.2566 N.am      11 UNK        -0.4285 
     65 CA         35.0314   -0.2185   -6.4412 C.3       11 UNK         0.1007 
     66 C          36.4452   -0.1028   -7.0835 C.2       11 UNK         0.5703 
     67 N          36.6121   -0.3547   -8.3773 N.am      11 UNK        -0.7361 
     68 O          37.4080    0.2193   -6.3914 O.2       11 UNK        -0.4986 
     69 C69        34.5215    1.1825   -5.9954 C.3       12 UNK        -0.0947 
     70 S70        32.8007    1.1988   -5.3915 S.3       12 UNK        -0.2240 
     71 C71        32.9901    0.4861   -3.7306 C.3       12 UNK         0.0194 
     72 H72        25.4595   -1.6940   -9.4821 H         1 UNK         0.0906 
     73 H73        24.6132   -2.8286  -10.5314 H         1 UNK         0.0906 
     74 H74        23.7876   -2.1441   -9.1279 H         1 UNK         0.0906 
     75 H75        26.6468   -2.5412   -7.7514 H         1 UNK         0.3140 
     76 H76        26.7448   -5.4257   -7.3505 H         1 UNK         0.1085 
     77 H77        28.8382   -4.1545   -7.5522 H         1 UNK         0.0836 
     78 H78        28.7452   -4.9442   -6.0164 H         1 UNK         0.0836 
     79 H79        30.2753   -3.7268   -4.5458 H         1 UNK         0.0731 
     80 H80        28.7608   -3.6306   -3.6770 H         1 UNK         0.0731 
     81 H81        31.7182   -1.6550   -4.7938 H         1 UNK         0.1312 
     82 H82        31.3831    1.2247   -1.6372 H         1 UNK         0.1406 
     83 H83        28.3903   -1.8202   -2.0965 H         1 UNK         0.1631 
     84 H84        29.5828    1.1739   -0.0995 H         1 UNK         0.0717 
     85 H85        29.1298   -0.4685    0.2812 H         1 UNK         0.0717 
     86 H86        26.7309    2.8542   -1.6248 H         1 UNK         0.0934 
     87 H87        28.4423    2.5898   -1.8236 H         1 UNK         0.0934 
     88 H88        28.0748    1.1246   -3.7678 H         1 UNK         0.0739 
     89 H89        25.4766    0.7432   -2.8018 H         1 UNK         0.3093 
     90 H90        23.5110    0.3353   -4.4037 H         1 UNK         0.0818 
     91 H91        22.9289   -1.4677   -6.0681 H         1 UNK         0.0819 
     92 H92        24.6110   -1.4799   -6.5933 H         1 UNK         0.0819 
     93 H93        23.6341   -0.0350   -6.7977 H         1 UNK         0.0819 
     94 H94        24.4834   -2.4074   -4.2071 H         1 UNK         0.3041 
     95 H95        24.9117   -2.5041   -0.8197 H         1 UNK         0.0784 
     96 H96        22.5561   -1.9133   -0.3007 H         1 UNK         0.0793 
     97 H97        21.9816   -2.9070   -1.6323 H         1 UNK         0.0793 
     98 H98        22.7731   -3.6532   -0.2434 H         1 UNK         0.0793 
     99 H99        23.6548   -4.3151   -2.7913 H         1 UNK         0.3024 
    100 H100       26.4258   -6.3438   -2.8191 H         1 UNK         0.1171 
    101 H101       24.5497   -7.3901   -4.0142 H         1 UNK         0.0786 
    102 H102       23.9474   -6.6367   -2.5522 H         1 UNK         0.0786 
    103 H103       23.6808   -5.8675   -4.1165 H         1 UNK         0.0786 
    104 H104       27.1863   -5.9764   -4.8716 H         1 UNK         0.2977 
    105 H105       25.2440    3.1527   -4.2179 H         1 UNK         0.3127 
    106 H106       26.6238    5.4787   -5.2476 H         1 UNK         0.0770 
    107 H107       23.6897    4.6059   -5.4651 H         1 UNK         0.0814 
    108 H108       24.3182    6.1956   -5.8731 H         1 UNK         0.0814 
    109 H109       24.3700    5.6419   -4.2086 H         1 UNK         0.0814 
    110 H110       25.6036    2.4107   -6.6588 H         1 UNK         0.2983 
    111 H111       25.7832    3.3737   -9.4403 H         1 UNK         0.0947 
    112 H112       25.3089    1.0344  -10.0281 H         1 UNK         0.0806 
    113 H113       24.1345    1.5773   -8.8402 H         1 UNK         0.0806 
    114 H114       25.4660    0.5252   -8.3567 H         1 UNK         0.0806 
    115 H115       27.6318    1.4954   -7.0611 H         1 UNK         0.3000 
    116 H116       29.7740    1.0351   -6.7664 H         1 UNK         0.0850 
    117 H117       31.4833    2.6827   -7.5800 H         1 UNK         0.0810 
    118 H118       30.0800    3.4783   -6.9047 H         1 UNK         0.0810 
    119 H119       30.2878    3.4121   -8.6480 H         1 UNK         0.0810 
    120 H120       31.3948    1.8496   -9.5398 H         1 UNK         0.3040 
    121 H121       32.4235    0.8420  -11.1887 H         1 UNK         0.0766 
    122 H122       31.3314   -0.8882  -12.5628 H         1 UNK         0.0812 
    123 H123       30.1783    0.3721  -12.1523 H         1 UNK         0.0812 
    124 H124       30.1260   -1.1805  -11.3208 H         1 UNK         0.0812 
    125 H125       31.2436   -1.5992   -8.8934 H         1 UNK         0.3205 
    126 H126       33.4302   -3.4520   -9.1807 H         1 UNK         0.0754 
    127 H127       31.4217   -3.0330   -6.9004 H         1 UNK         0.0769 
    128 H128       32.4689   -4.4348   -7.0784 H         1 UNK         0.0769 
    129 H129       31.2221   -4.1212   -8.2734 H         1 UNK         0.0769 
    130 H130       33.2976   -0.3783   -7.6417 H         1 UNK         0.2981 
    131 H131       35.1729   -0.8142   -5.5382 H         1 UNK         0.0541 
    132 H132       35.8280   -0.6187   -8.9553 H         1 UNK         0.3459 
    133 H133       37.5328   -0.2789   -8.7798 H         1 UNK         0.3459 
    134 H134       34.5695    1.8826   -6.8316 H         1 UNK         0.0612 
    135 H135       35.1668    1.5951   -5.2176 H         1 UNK         0.0612 
    136 H136       33.7658   -0.2797   -3.7358 H         1 UNK         0.0624 
    137 H137       33.3228    1.2648   -3.0428 H         1 UNK         0.0624 
@<TRIPOS>BOND
     1    1    2 1    
     2    1   72 1    
     3    1   73 1    
     4    1   74 1    
     5    2    3 2    
     6    2    4 am   BACKBONE|DICT|INTERRES
     7    4    5 1    
     8    4   75 1    
     9    5    6 1    
    10    5   35 1    
    11    5   76 1    
    12    6    7 1    
    13    6   77 1    
    14    6   78 1    
    15    7    8 1    
    16    8    9 1    
    17    8   79 1    
    18    8   80 1    
    19    9   10 ar   
    20    9   14 ar   
    21   10   11 ar   
    22   10   81 1    
    23   11   12 ar   
    24   11   71 1    
    25   12   13 ar   
    26   12   82 1    
    27   13   14 ar   
    28   13   15 1    
    29   14   83 1    
    30   15   16 1    
    31   15   84 1    
    32   15   85 1    
    33   16   17 1    
    34   17   18 1    
    35   17   86 1    
    36   17   87 1    
    37   18   19 1    
    38   18   37 1    
    39   18   88 1    
    40   19   20 am   BACKBONE|DICT|INTERRES
    41   19   89 1    
    42   20   21 2    
    43   20   22 1    
    44   22   23 1    
    45   22   24 1    
    46   22   90 1    
    47   23   91 1    
    48   23   92 1    
    49   23   93 1    
    50   24   25 am   BACKBONE|DICT|INTERRES
    51   24   94 1    
    52   25   26 2    
    53   25   27 1    
    54   27   28 1    
    55   27   29 1    
    56   27   95 1    
    57   28   96 1    
    58   28   97 1    
    59   28   98 1    
    60   29   30 am   BACKBONE|DICT|INTERRES
    61   29   99 1    
    62   30   31 2    
    63   30   32 1    
    64   32   33 1    
    65   32   34 1    
    66   32  100 1    
    67   33  101 1    
    68   33  102 1    
    69   33  103 1    
    70   34   35 am   BACKBONE|DICT|INTERRES
    71   34  104 1    
    72   35   36 2    
    73   37   38 2    
    74   37   39 am   BACKBONE|DICT|INTERRES
    75   39   40 1    
    76   39  105 1    
    77   40   41 1    
    78   40   42 1    
    79   40  106 1    
    80   41  107 1    
    81   41  108 1    
    82   41  109 1    
    83   42   43 2    
    84   42   44 am   BACKBONE|DICT|INTERRES
    85   44   45 1    
    86   44  110 1    
    87   45   46 1    
    88   45   47 1    
    89   45  111 1    
    90   46  112 1    
    91   46  113 1    
    92   46  114 1    
    93   47   48 2    
    94   47   49 am   BACKBONE|DICT|INTERRES
    95   49   50 1    
    96   49  115 1    
    97   50   51 1    
    98   50   52 1    
    99   50  116 1    
   100   51  117 1    
   101   51  118 1    
   102   51  119 1    
   103   52   53 2    
   104   52   54 am   BACKBONE|DICT|INTERRES
   105   54   55 1    
   106   54  120 1    
   107   55   56 1    
   108   55   57 1    
   109   55  121 1    
   110   56  122 1    
   111   56  123 1    
   112   56  124 1    
   113   57   58 2    
   114   57   59 am   BACKBONE|DICT|INTERRES
   115   59   60 1    
   116   59  125 1    
   117   60   61 1    
   118   60   62 1    
   119   60  126 1    
   120   61  127 1    
   121   61  128 1    
   122   61  129 1    
   123   62   63 2    
   124   62   64 am   BACKBONE|DICT|INTERRES
   125   64   65 1    
   126   64  130 1    
   127   65   66 1    
   128   65   69 1    
   129   65  131 1    
   130   66   67 am   BACKBONE|DICT|INTERRES
   131   66   68 2    
   132   67  132 1    
   133   67  133 1    
   134   69   70 1    
   135   69  134 1    
   136   69  135 1    
   137   70   71 1    
   138   71  136 1    
   139   71  137 1    
@<TRIPOS>SUBSTRUCTURE
     1 UNK         1 GROUP             0       ****    0 ROOT    
