@<TRIPOS>MOLECULE
3R137
137   139    1
SMALL
USER_CHARGES


@<TRIPOS>ATOM
      1 CA         24.5165   -4.3151   -3.5047 C.3       0 UNK        -0.2020 
      2 C          25.5067   -3.2907   -2.9763 C.2       0 UNK         0.4855 
      3 O          25.7491   -2.2753   -3.6332 O.2       0 UNK        -0.5197 
      4 N          26.0640   -3.5450   -1.7837 N.am      1 UNK        -0.4892 
      5 CA         27.1052   -2.7448   -1.1132 C.3       1 UNK         0.0835 
      6 C6         28.4375   -2.7508   -1.9141 C.3       12 UNK        -0.0855 
      7 S7         29.9218   -2.7097   -0.8510 S.3       12 UNK        -0.2931 
      8 C8         31.1398   -3.5923   -1.8831 C.3       12 UNK         0.0378 
      9 C9         31.2576   -2.9790   -3.2717 C.ar      12 UNK        -0.0802 
     10 C10        31.8090   -1.7044   -3.4324 C.ar      12 UNK        -0.0944 
     11 C11        31.8837   -1.1198   -4.6991 C.ar      12 UNK        -0.0787 
     12 C12        31.3857   -1.8144   -5.8037 C.ar      12 UNK        -0.0862 
     13 C13        30.8333   -3.0894   -5.6621 C.ar      12 UNK        -0.0733 
     14 C14        30.7929   -3.6762   -4.3922 C.ar      12 UNK        -0.0832 
     15 C15        30.3010   -3.8047   -6.9024 C.3       12 UNK         0.0240 
     16 S16        28.7771   -4.7756   -6.6476 S.3       12 UNK        -0.2522 
     17 C17        27.6416   -3.5864   -5.8614 C.3       12 UNK        -0.0967 
     18 CA         27.1401   -2.4559   -6.8023 C.3       5 UNK         0.0660 
     19 N          25.6836   -2.2908   -6.7364 N.am      5 UNK        -0.4015 
     20 C          24.9611   -1.6029   -7.6303 C.2       4 UNK         0.4946 
     21 O          25.4468   -1.0378   -8.6097 O.2       4 UNK        -0.5353 
     22 CA         23.4415   -1.5146   -7.4012 C.3       4 UNK         0.0277 
     23 CB         22.7392   -2.7214   -8.0443 C.3       4 UNK        -0.1981 
     24 N          23.0071   -1.3904   -6.0044 N.am      4 UNK        -0.4209 
     25 C          23.4084   -0.4550   -5.1318 C.2       3 UNK         0.4942 
     26 O          24.3145    0.3455   -5.3596 O.2       3 UNK        -0.5208 
     27 CA         22.6761   -0.3787   -3.7837 C.3       3 UNK         0.0250 
     28 CB         21.6694   -1.5212   -3.5231 C.3       3 UNK        -0.1990 
     29 N          23.6655   -0.3273   -2.7118 N.am      3 UNK        -0.4232 
     30 C          23.5148    0.3176   -1.5468 C.2       2 UNK         0.4993 
     31 O          22.5107    0.9703   -1.2563 O.2       2 UNK        -0.5286 
     32 CA         24.6591    0.1854   -0.5248 C.3       2 UNK         0.0209 
     33 CB         24.1856    0.3579    0.9315 C.3       2 UNK        -0.1931 
     34 N          25.3151   -1.1139   -0.6731 N.am      2 UNK        -0.4546 
     35 C          26.6363   -1.3187   -0.7226 C.2       1 UNK         0.5154 
     36 O          27.4599   -0.4349   -0.4833 O.2       1 UNK        -0.5181 
     37 C          27.8464   -1.1157   -6.5174 C.2       5 UNK         0.5014 
     38 O          28.7091   -0.6951   -7.2918 O.2       5 UNK        -0.5248 
     39 N          27.4251   -0.4475   -5.4342 N.am      6 UNK        -0.4434 
     40 CA         27.8938    0.8846   -5.0489 C.3       6 UNK         0.0363 
     41 CB         27.3596    1.2343   -3.6531 C.3       6 UNK        -0.1936 
     42 C          27.5151    1.9733   -6.0678 C.2       6 UNK         0.5081 
     43 O          28.3216    2.8693   -6.3129 O.2       6 UNK        -0.5248 
     44 N          26.3175    1.8647   -6.6609 N.am      7 UNK        -0.4718 
     45 CA         25.8302    2.7395   -7.7310 C.3       7 UNK         0.0273 
     46 CB         24.3350    2.4832   -7.9732 C.3       7 UNK        -0.1935 
     47 C          26.6283    2.5876   -9.0372 C.2       7 UNK         0.5018 
     48 O          26.9085    3.5954   -9.6874 O.2       7 UNK        -0.5186 
     49 N          27.0023    1.3462   -9.3859 N.am      8 UNK        -0.4240 
     50 CA         27.9114    1.0382  -10.4955 C.3       8 UNK         0.0235 
     51 CB         27.8916   -0.4725  -10.7804 C.3       8 UNK        -0.2000 
     52 C          29.3496    1.5202  -10.2333 C.2       8 UNK         0.4941 
     53 O          30.0417    1.8887  -11.1827 O.2       8 UNK        -0.5273 
     54 N          29.7562    1.5184   -8.9542 N.am      9 UNK        -0.4262 
     55 CA         31.0245    2.0189   -8.4120 C.3       9 UNK         0.0264 
     56 CB         31.1485    3.5435   -8.6154 C.3       9 UNK        -0.1955 
     57 C          32.2555    1.2450   -8.9192 C.2       9 UNK         0.5031 
     58 O          33.3380    1.8210   -9.0465 O.2       9 UNK        -0.5390 
     59 N          32.0757   -0.0604   -9.1706 N.am      10 UNK        -0.4204 
     60 CA         33.0791   -0.9741   -9.7323 C.3       10 UNK         0.0237 
     61 CB         32.4375   -2.3547   -9.9448 C.3       10 UNK        -0.1985 
     62 C          34.3781   -1.1088   -8.9137 C.2       10 UNK         0.4970 
     63 O          35.4082   -1.4658   -9.4866 O.2       10 UNK        -0.4914 
     64 N          34.3139   -0.8188   -7.6077 N.am      11 UNK        -0.4285 
     65 CA         35.4697   -0.7605   -6.7048 C.3       11 UNK         0.1007 
     66 C          36.3808    0.4910   -6.8891 C.2       11 UNK         0.5703 
     67 N          35.9869    1.5012   -7.6584 N.am      11 UNK        -0.7361 
     68 O          37.4764    0.5360   -6.3344 O.2       11 UNK        -0.4986 
     69 C69        35.0484   -1.0095   -5.2305 C.3       12 UNK        -0.0947 
     70 S70        34.2279    0.3867   -4.3744 S.3       12 UNK        -0.2240 
     71 C71        32.4797    0.2691   -4.8795 C.3       12 UNK         0.0194 
     72 H72        23.7878   -4.5822   -2.7397 H         1 UNK         0.0906 
     73 H73        23.9743   -3.9249   -4.3649 H         1 UNK         0.0906 
     74 H74        25.0384   -5.2196   -3.8161 H         1 UNK         0.0906 
     75 H75        25.7978   -4.3894   -1.2938 H         1 UNK         0.3140 
     76 H76        27.2809   -3.2549   -0.1645 H         1 UNK         0.1085 
     77 H77        28.4979   -3.6641   -2.5076 H         1 UNK         0.0836 
     78 H78        28.4789   -1.9308   -2.6343 H         1 UNK         0.0836 
     79 H79        30.8590   -4.6450   -1.9444 H         1 UNK         0.0731 
     80 H80        32.1128   -3.5623   -1.3908 H         1 UNK         0.0731 
     81 H81        32.1719   -1.1634   -2.5690 H         1 UNK         0.1312 
     82 H82        31.4117   -1.3577   -6.7813 H         1 UNK         0.1406 
     83 H83        30.3723   -4.6652   -4.2722 H         1 UNK         0.1631 
     84 H84        31.0778   -4.4720   -7.2774 H         1 UNK         0.0717 
     85 H85        30.1030   -3.0857   -7.6984 H         1 UNK         0.0717 
     86 H86        26.8001   -4.1909   -5.5227 H         1 UNK         0.0934 
     87 H87        28.0882   -3.2001   -4.9439 H         1 UNK         0.0934 
     88 H88        27.3760   -2.7279   -7.8337 H         1 UNK         0.0739 
     89 H89        25.2222   -2.6502   -5.9137 H         1 UNK         0.3093 
     90 H90        23.0956   -0.6168   -7.9163 H         1 UNK         0.0818 
     91 H91        21.6549   -2.6115   -8.0192 H         1 UNK         0.0819 
     92 H92        23.0256   -2.8277   -9.0918 H         1 UNK         0.0819 
     93 H93        22.9952   -3.6545   -7.5406 H         1 UNK         0.0819 
     94 H94        22.2575   -2.0029   -5.7177 H         1 UNK         0.3041 
     95 H95        22.1246    0.5637   -3.8022 H         1 UNK         0.0784 
     96 H96        20.8859   -1.5461   -4.2815 H         1 UNK         0.0793 
     97 H97        22.1530   -2.4975   -3.5017 H         1 UNK         0.0793 
     98 H98        21.1681   -1.3862   -2.5644 H         1 UNK         0.0793 
     99 H99        24.5435   -0.7956   -2.9154 H         1 UNK         0.3024 
    100 H100       25.3635    0.9879   -0.7564 H         1 UNK         0.1171 
    101 H101       25.0177    0.2702    1.6302 H         1 UNK         0.0786 
    102 H102       23.7381    1.3405    1.0866 H         1 UNK         0.0786 
    103 H103       23.4394   -0.3898    1.2024 H         1 UNK         0.0786 
    104 H104       24.7094   -1.8983   -0.8716 H         1 UNK         0.2977 
    105 H105       26.7023   -0.8675   -4.8586 H         1 UNK         0.3127 
    106 H106       28.9843    0.8483   -4.9968 H         1 UNK         0.0770 
    107 H107       26.2698    1.2180   -3.6184 H         1 UNK         0.0814 
    108 H108       27.6832    2.2301   -3.3478 H         1 UNK         0.0814 
    109 H109       27.7330    0.5329   -2.9092 H         1 UNK         0.0814 
    110 H110       25.6775    1.1469   -6.3253 H         1 UNK         0.2983 
    111 H111       25.9474    3.7712   -7.3919 H         1 UNK         0.0947 
    112 H112       23.9381    3.1713   -8.7207 H         1 UNK         0.0806 
    113 H113       23.7544    2.6230   -7.0611 H         1 UNK         0.0806 
    114 H114       24.1546    1.4712   -8.3343 H         1 UNK         0.0806 
    115 H115       26.6585    0.5585   -8.8442 H         1 UNK         0.3000 
    116 H116       27.5465    1.5580  -11.3839 H         1 UNK         0.0850 
    117 H117       28.5525   -0.7229  -11.6112 H         1 UNK         0.0810 
    118 H118       26.8905   -0.8102  -11.0492 H         1 UNK         0.0810 
    119 H119       28.2169   -1.0531   -9.9168 H         1 UNK         0.0810 
    120 H120       29.1245    1.1119   -8.2712 H         1 UNK         0.3040 
    121 H121       30.9726    1.8411   -7.3376 H         1 UNK         0.0766 
    122 H122       31.2657    3.8039   -9.6677 H         1 UNK         0.0812 
    123 H123       32.0139    3.9407   -8.0836 H         1 UNK         0.0812 
    124 H124       30.2690    4.0641   -8.2357 H         1 UNK         0.0812 
    125 H125       31.1427   -0.4291   -9.0515 H         1 UNK         0.3205 
    126 H126       33.3593   -0.5748  -10.7093 H         1 UNK         0.0754 
    127 H127       33.1314   -3.0336  -10.4427 H         1 UNK         0.0769 
    128 H128       31.5464   -2.2914  -10.5700 H         1 UNK         0.0769 
    129 H129       32.1568   -2.8173   -8.9990 H         1 UNK         0.0769 
    130 H130       33.4375   -0.5126   -7.2205 H         1 UNK         0.2981 
    131 H131       36.1067   -1.6052   -6.9745 H         1 UNK         0.0541 
    132 H132       35.0854    1.4902   -8.1241 H         1 UNK         0.3459 
    133 H133       36.5942    2.2971   -7.7688 H         1 UNK         0.3459 
    134 H134       35.9385   -1.2491   -4.6466 H         1 UNK         0.0612 
    135 H135       34.4247   -1.9015   -5.1628 H         1 UNK         0.0612 
    136 H136       31.8982    0.9808   -4.2920 H         1 UNK         0.0624 
    137 H137       32.3993    0.5962   -5.9148 H         1 UNK         0.0624 
@<TRIPOS>BOND
     1    1    2 1    
     2    1   72 1    
     3    1   73 1    
     4    1   74 1    
     5    2    3 2    
     6    2    4 am   BACKBONE|DICT|INTERRES
     7    4    5 1    
     8    4   75 1    
     9    5    6 1    
    10    5   35 1    
    11    5   76 1    
    12    6    7 1    
    13    6   77 1    
    14    6   78 1    
    15    7    8 1    
    16    8    9 1    
    17    8   79 1    
    18    8   80 1    
    19    9   10 ar   
    20    9   14 ar   
    21   10   11 ar   
    22   10   81 1    
    23   11   12 ar   
    24   11   71 1    
    25   12   13 ar   
    26   12   82 1    
    27   13   14 ar   
    28   13   15 1    
    29   14   83 1    
    30   15   16 1    
    31   15   84 1    
    32   15   85 1    
    33   16   17 1    
    34   17   18 1    
    35   17   86 1    
    36   17   87 1    
    37   18   19 1    
    38   18   37 1    
    39   18   88 1    
    40   19   20 am   BACKBONE|DICT|INTERRES
    41   19   89 1    
    42   20   21 2    
    43   20   22 1    
    44   22   23 1    
    45   22   24 1    
    46   22   90 1    
    47   23   91 1    
    48   23   92 1    
    49   23   93 1    
    50   24   25 am   BACKBONE|DICT|INTERRES
    51   24   94 1    
    52   25   26 2    
    53   25   27 1    
    54   27   28 1    
    55   27   29 1    
    56   27   95 1    
    57   28   96 1    
    58   28   97 1    
    59   28   98 1    
    60   29   30 am   BACKBONE|DICT|INTERRES
    61   29   99 1    
    62   30   31 2    
    63   30   32 1    
    64   32   33 1    
    65   32   34 1    
    66   32  100 1    
    67   33  101 1    
    68   33  102 1    
    69   33  103 1    
    70   34   35 am   BACKBONE|DICT|INTERRES
    71   34  104 1    
    72   35   36 2    
    73   37   38 2    
    74   37   39 am   BACKBONE|DICT|INTERRES
    75   39   40 1    
    76   39  105 1    
    77   40   41 1    
    78   40   42 1    
    79   40  106 1    
    80   41  107 1    
    81   41  108 1    
    82   41  109 1    
    83   42   43 2    
    84   42   44 am   BACKBONE|DICT|INTERRES
    85   44   45 1    
    86   44  110 1    
    87   45   46 1    
    88   45   47 1    
    89   45  111 1    
    90   46  112 1    
    91   46  113 1    
    92   46  114 1    
    93   47   48 2    
    94   47   49 am   BACKBONE|DICT|INTERRES
    95   49   50 1    
    96   49  115 1    
    97   50   51 1    
    98   50   52 1    
    99   50  116 1    
   100   51  117 1    
   101   51  118 1    
   102   51  119 1    
   103   52   53 2    
   104   52   54 am   BACKBONE|DICT|INTERRES
   105   54   55 1    
   106   54  120 1    
   107   55   56 1    
   108   55   57 1    
   109   55  121 1    
   110   56  122 1    
   111   56  123 1    
   112   56  124 1    
   113   57   58 2    
   114   57   59 am   BACKBONE|DICT|INTERRES
   115   59   60 1    
   116   59  125 1    
   117   60   61 1    
   118   60   62 1    
   119   60  126 1    
   120   61  127 1    
   121   61  128 1    
   122   61  129 1    
   123   62   63 2    
   124   62   64 am   BACKBONE|DICT|INTERRES
   125   64   65 1    
   126   64  130 1    
   127   65   66 1    
   128   65   69 1    
   129   65  131 1    
   130   66   67 am   BACKBONE|DICT|INTERRES
   131   66   68 2    
   132   67  132 1    
   133   67  133 1    
   134   69   70 1    
   135   69  134 1    
   136   69  135 1    
   137   70   71 1    
   138   71  136 1    
   139   71  137 1    
@<TRIPOS>SUBSTRUCTURE
     1 UNK         1 GROUP             0       ****    0 ROOT    
