@<TRIPOS>MOLECULE
3R137
137   139    1
SMALL
USER_CHARGES


@<TRIPOS>ATOM
      1 CA         28.0200   -2.6563    4.3019 C.3       0 UNK        -0.2020 
      2 C          28.3764   -2.5361    2.8277 C.2       0 UNK         0.4855 
      3 O          29.4492   -2.9800    2.4179 O.2       0 UNK        -0.5197 
      4 N          27.4880   -1.9395    2.0278 N.am      1 UNK        -0.4892 
      5 CA         27.6586   -1.7061    0.5967 C.3       1 UNK         0.0835 
      6 C6         27.3140   -2.9700   -0.2358 C.3       12 UNK        -0.0855 
      7 S7         27.8172   -2.8368   -1.9857 S.3       12 UNK        -0.2931 
      8 C8         29.2491   -3.9530   -2.0225 C.3       12 UNK         0.0378 
      9 C9         29.8774   -3.9959   -3.4066 C.ar      12 UNK        -0.0802 
     10 C10        30.9778   -3.1879   -3.7056 C.ar      12 UNK        -0.0944 
     11 C11        31.5875   -3.2506   -4.9624 C.ar      12 UNK        -0.0787 
     12 C12        31.0841   -4.1354   -5.9243 C.ar      12 UNK        -0.0862 
     13 C13        29.9746   -4.9400   -5.6420 C.ar      12 UNK        -0.0733 
     14 C14        29.3758   -4.8642   -4.3803 C.ar      12 UNK        -0.0832 
     15 C15        29.4537   -5.9291   -6.6786 C.3       12 UNK         0.0240 
     16 S16        28.6520   -5.1237   -8.1036 S.3       12 UNK        -0.2522 
     17 C17        27.1674   -4.3731   -7.3481 C.3       12 UNK        -0.0967 
     18 CA         26.8025   -2.9997   -7.9676 C.3       5 UNK         0.0660 
     19 N          25.4878   -2.5343   -7.5116 N.am      5 UNK        -0.4015 
     20 C          24.8447   -1.4578   -7.9897 C.2       4 UNK         0.4946 
     21 O          25.2587   -0.7675   -8.9185 O.2       4 UNK        -0.5353 
     22 CA         23.5399   -1.0432   -7.2858 C.3       4 UNK         0.0277 
     23 CB         22.3383   -1.7718   -7.9083 C.3       4 UNK        -0.1981 
     24 N          23.5442   -1.2497   -5.8328 N.am      4 UNK        -0.4209 
     25 C          24.4531   -0.7483   -4.9843 C.2       3 UNK         0.4942 
     26 O          25.4169   -0.0663   -5.3426 O.2       3 UNK        -0.5208 
     27 CA         24.2717   -1.1235   -3.5031 C.3       3 UNK         0.0250 
     28 CB         24.3945   -2.6455   -3.3032 C.3       3 UNK        -0.1990 
     29 N          25.2711   -0.4656   -2.6628 N.am      3 UNK        -0.4232 
     30 C          25.2191    0.8060   -2.2414 C.2       2 UNK         0.4993 
     31 O          24.2593    1.5532   -2.4414 O.2       2 UNK        -0.5286 
     32 CA         26.4553    1.3265   -1.4753 C.3       2 UNK         0.0209 
     33 CB         26.1256    2.4910   -0.5157 C.3       2 UNK        -0.1931 
     34 N          27.2007    0.2573   -0.7917 N.am      2 UNK        -0.4546 
     35 C          26.7670   -0.5117    0.2189 C.2       1 UNK         0.5154 
     36 O          25.7001   -0.3436    0.8169 O.2       1 UNK        -0.5181 
     37 C          27.8957   -1.9378   -7.7238 C.2       5 UNK         0.5014 
     38 O          28.6011   -1.5674   -8.6639 O.2       5 UNK        -0.5248 
     39 N          27.9763   -1.4370   -6.4818 N.am      6 UNK        -0.4434 
     40 CA         28.9236   -0.4035   -6.0606 C.3       6 UNK         0.0363 
     41 CB         28.8321   -0.2026   -4.5410 C.3       6 UNK        -0.1936 
     42 C          28.7243    0.9289   -6.7963 C.2       6 UNK         0.5081 
     43 O          29.7101    1.5952   -7.1140 O.2       6 UNK        -0.5248 
     44 N          27.4599    1.2778   -7.0676 N.am      7 UNK        -0.4718 
     45 CA         27.0735    2.4405   -7.8632 C.3       7 UNK         0.0273 
     46 CB         25.5679    2.7022   -7.6972 C.3       7 UNK        -0.1935 
     47 C          27.4510    2.2879   -9.3464 C.2       7 UNK         0.5018 
     48 O          28.0753    3.1931   -9.8996 O.2       7 UNK        -0.5186 
     49 N          27.0808    1.1536   -9.9606 N.am      8 UNK        -0.4240 
     50 CA         27.3141    0.8593  -11.3785 C.3       8 UNK         0.0235 
     51 CB         26.5326   -0.3985  -11.7909 C.3       8 UNK        -0.2000 
     52 C          28.7995    0.7072  -11.7356 C.2       8 UNK         0.4941 
     53 O          29.2312    1.2498  -12.7536 O.2       8 UNK        -0.5273 
     54 N          29.5574   -0.0105  -10.8951 N.am      9 UNK        -0.4262 
     55 CA         31.0028   -0.1948  -11.0564 C.3       9 UNK         0.0264 
     56 CB         31.4321   -1.4683  -10.3118 C.3       9 UNK        -0.1955 
     57 C          31.8265    1.0192  -10.5867 C.2       9 UNK         0.5031 
     58 O          33.0196    1.0779  -10.8864 O.2       9 UNK        -0.5390 
     59 N          31.1918    1.9457   -9.8511 N.am      10 UNK        -0.4204 
     60 CA         31.7509    3.1602   -9.2413 C.3       10 UNK         0.0237 
     61 CB         32.2678    4.1371  -10.3188 C.3       10 UNK        -0.1985 
     62 C          32.7927    2.8887   -8.1355 C.2       10 UNK         0.4970 
     63 O          33.5356    3.7998   -7.7657 O.2       10 UNK        -0.4914 
     64 N          32.8192    1.6568   -7.6146 N.am      11 UNK        -0.4285 
     65 CA         33.6591    1.2202   -6.4925 C.3       11 UNK         0.1007 
     66 C          33.0657    1.5517   -5.0929 C.2       11 UNK         0.5703 
     67 N          31.8156    1.9884   -4.9856 N.am      11 UNK        -0.7361 
     68 O          33.7625    1.4307   -4.0882 O.2       11 UNK        -0.4986 
     69 C69        34.0601   -0.2723   -6.6364 C.3       12 UNK        -0.0947 
     70 S70        32.6335   -1.4033   -6.7659 S.3       12 UNK        -0.2240 
     71 C71        32.8140   -2.3917   -5.2507 C.3       12 UNK         0.0194 
     72 H72        27.0451   -2.2218    4.5227 H         1 UNK         0.0906 
     73 H73        27.9986   -3.7047    4.5983 H         1 UNK         0.0906 
     74 H74        28.7649   -2.1449    4.9111 H         1 UNK         0.0906 
     75 H75        26.6278   -1.5510    2.3986 H         1 UNK         0.3140 
     76 H76        28.7000   -1.4269    0.4185 H         1 UNK         0.1085 
     77 H77        27.7982   -3.8454    0.1997 H         1 UNK         0.0836 
     78 H78        26.2434   -3.1811   -0.1949 H         1 UNK         0.0836 
     79 H79        28.9367   -4.9558   -1.7265 H         1 UNK         0.0731 
     80 H80        29.9817   -3.6265   -1.2824 H         1 UNK         0.0731 
     81 H81        31.3663   -2.5168   -2.9517 H         1 UNK         0.1312 
     82 H82        31.5569   -4.1990   -6.8950 H         1 UNK         0.1406 
     83 H83        28.5260   -5.4915   -4.1467 H         1 UNK         0.1631 
     84 H84        28.7514   -6.6323   -6.2281 H         1 UNK         0.0717 
     85 H85        30.2885   -6.5291   -7.0436 H         1 UNK         0.0717 
     86 H86        26.3440   -5.0746   -7.4921 H         1 UNK         0.0934 
     87 H87        27.2983   -4.2844   -6.2688 H         1 UNK         0.0934 
     88 H88        26.7247   -3.1337   -9.0490 H         1 UNK         0.0739 
     89 H89        25.0638   -3.0413   -6.7495 H         1 UNK         0.3093 
     90 H90        23.4105    0.0275   -7.4551 H         1 UNK         0.0818 
     91 H91        21.3959   -1.4037   -7.5022 H         1 UNK         0.0819 
     92 H92        22.3047   -1.6158   -8.9878 H         1 UNK         0.0819 
     93 H93        22.3820   -2.8480   -7.7361 H         1 UNK         0.0819 
     94 H94        22.7849   -1.7990   -5.4559 H         1 UNK         0.3041 
     95 H95        23.2771   -0.8026   -3.1863 H         1 UNK         0.0784 
     96 H96        23.5849   -3.1811   -3.8000 H         1 UNK         0.0793 
     97 H97        25.3334   -3.0325   -3.7012 H         1 UNK         0.0793 
     98 H98        24.3475   -2.9111   -2.2466 H         1 UNK         0.0793 
     99 H99        26.1076   -0.9978   -2.4690 H         1 UNK         0.3024 
    100 H100       27.1251    1.7210   -2.2415 H         1 UNK         0.1171 
    101 H101       25.7272    3.3461   -1.0633 H         1 UNK         0.0786 
    102 H102       25.3790    2.2091    0.2270 H         1 UNK         0.0786 
    103 H103       27.0146    2.8336    0.0137 H         1 UNK         0.0786 
    104 H104       28.0921    0.0224   -1.2077 H         1 UNK         0.2977 
    105 H105       27.3125   -1.7446   -5.7874 H         1 UNK         0.3127 
    106 H106       29.9239   -0.7637   -6.2976 H         1 UNK         0.0770 
    107 H107       27.8388    0.1232   -4.2339 H         1 UNK         0.0814 
    108 H108       29.5424    0.5505   -4.2011 H         1 UNK         0.0814 
    109 H109       29.0653   -1.1237   -4.0110 H         1 UNK         0.0814 
    110 H110       26.7132    0.6921   -6.7049 H         1 UNK         0.2983 
    111 H111       27.6121    3.3066   -7.4719 H         1 UNK         0.0947 
    112 H112       25.2644    3.5938   -8.2473 H         1 UNK         0.0806 
    113 H113       25.3067    2.8605   -6.6506 H         1 UNK         0.0806 
    114 H114       24.9682    1.8706   -8.0674 H         1 UNK         0.0806 
    115 H115       26.5460    0.4600   -9.4398 H         1 UNK         0.3000 
    116 H116       26.9243    1.7007  -11.9554 H         1 UNK         0.0850 
    117 H117       26.8388   -1.2706  -11.2112 H         1 UNK         0.0810 
    118 H118       25.4605   -0.2625  -11.6477 H         1 UNK         0.0810 
    119 H119       26.6914   -0.6321  -12.8445 H         1 UNK         0.0810 
    120 H120       29.1242   -0.4647  -10.0910 H         1 UNK         0.3040 
    121 H121       31.2218   -0.3390  -12.1166 H         1 UNK         0.0766 
    122 H122       31.1905   -1.4097   -9.2516 H         1 UNK         0.0812 
    123 H123       32.5070   -1.6345  -10.3951 H         1 UNK         0.0812 
    124 H124       30.9338   -2.3499  -10.7151 H         1 UNK         0.0812 
    125 H125       30.2133    1.7858   -9.6487 H         1 UNK         0.3205 
    126 H126       30.9117    3.6443   -8.7394 H         1 UNK         0.0754 
    127 H127       32.5298    5.1010   -9.8811 H         1 UNK         0.0769 
    128 H128       31.5090    4.3243  -11.0788 H         1 UNK         0.0769 
    129 H129       33.1584    3.7558  -10.8191 H         1 UNK         0.0769 
    130 H130       32.1386    0.9850   -7.9373 H         1 UNK         0.2981 
    131 H131       34.5895    1.7887   -6.5433 H         1 UNK         0.0541 
    132 H132       31.4545    2.2215   -4.0755 H         1 UNK         0.3459 
    133 H133       31.2179    2.0445   -5.8021 H         1 UNK         0.3459 
    134 H134       34.6564   -0.3979   -7.5413 H         1 UNK         0.0612 
    135 H135       34.7104   -0.5793   -5.8155 H         1 UNK         0.0612 
    136 H136       33.6891   -3.0358   -5.3453 H         1 UNK         0.0624 
    137 H137       33.0093   -1.7160   -4.4163 H         1 UNK         0.0624 
@<TRIPOS>BOND
     1    1    2 1    
     2    1   72 1    
     3    1   73 1    
     4    1   74 1    
     5    2    3 2    
     6    2    4 am   BACKBONE|DICT|INTERRES
     7    4    5 1    
     8    4   75 1    
     9    5    6 1    
    10    5   35 1    
    11    5   76 1    
    12    6    7 1    
    13    6   77 1    
    14    6   78 1    
    15    7    8 1    
    16    8    9 1    
    17    8   79 1    
    18    8   80 1    
    19    9   10 ar   
    20    9   14 ar   
    21   10   11 ar   
    22   10   81 1    
    23   11   12 ar   
    24   11   71 1    
    25   12   13 ar   
    26   12   82 1    
    27   13   14 ar   
    28   13   15 1    
    29   14   83 1    
    30   15   16 1    
    31   15   84 1    
    32   15   85 1    
    33   16   17 1    
    34   17   18 1    
    35   17   86 1    
    36   17   87 1    
    37   18   19 1    
    38   18   37 1    
    39   18   88 1    
    40   19   20 am   BACKBONE|DICT|INTERRES
    41   19   89 1    
    42   20   21 2    
    43   20   22 1    
    44   22   23 1    
    45   22   24 1    
    46   22   90 1    
    47   23   91 1    
    48   23   92 1    
    49   23   93 1    
    50   24   25 am   BACKBONE|DICT|INTERRES
    51   24   94 1    
    52   25   26 2    
    53   25   27 1    
    54   27   28 1    
    55   27   29 1    
    56   27   95 1    
    57   28   96 1    
    58   28   97 1    
    59   28   98 1    
    60   29   30 am   BACKBONE|DICT|INTERRES
    61   29   99 1    
    62   30   31 2    
    63   30   32 1    
    64   32   33 1    
    65   32   34 1    
    66   32  100 1    
    67   33  101 1    
    68   33  102 1    
    69   33  103 1    
    70   34   35 am   BACKBONE|DICT|INTERRES
    71   34  104 1    
    72   35   36 2    
    73   37   38 2    
    74   37   39 am   BACKBONE|DICT|INTERRES
    75   39   40 1    
    76   39  105 1    
    77   40   41 1    
    78   40   42 1    
    79   40  106 1    
    80   41  107 1    
    81   41  108 1    
    82   41  109 1    
    83   42   43 2    
    84   42   44 am   BACKBONE|DICT|INTERRES
    85   44   45 1    
    86   44  110 1    
    87   45   46 1    
    88   45   47 1    
    89   45  111 1    
    90   46  112 1    
    91   46  113 1    
    92   46  114 1    
    93   47   48 2    
    94   47   49 am   BACKBONE|DICT|INTERRES
    95   49   50 1    
    96   49  115 1    
    97   50   51 1    
    98   50   52 1    
    99   50  116 1    
   100   51  117 1    
   101   51  118 1    
   102   51  119 1    
   103   52   53 2    
   104   52   54 am   BACKBONE|DICT|INTERRES
   105   54   55 1    
   106   54  120 1    
   107   55   56 1    
   108   55   57 1    
   109   55  121 1    
   110   56  122 1    
   111   56  123 1    
   112   56  124 1    
   113   57   58 2    
   114   57   59 am   BACKBONE|DICT|INTERRES
   115   59   60 1    
   116   59  125 1    
   117   60   61 1    
   118   60   62 1    
   119   60  126 1    
   120   61  127 1    
   121   61  128 1    
   122   61  129 1    
   123   62   63 2    
   124   62   64 am   BACKBONE|DICT|INTERRES
   125   64   65 1    
   126   64  130 1    
   127   65   66 1    
   128   65   69 1    
   129   65  131 1    
   130   66   67 am   BACKBONE|DICT|INTERRES
   131   66   68 2    
   132   67  132 1    
   133   67  133 1    
   134   69   70 1    
   135   69  134 1    
   136   69  135 1    
   137   70   71 1    
   138   71  136 1    
   139   71  137 1    
@<TRIPOS>SUBSTRUCTURE
     1 UNK         1 GROUP             0       ****    0 ROOT    
