@<TRIPOS>MOLECULE
3R137
137   139    1
SMALL
USER_CHARGES


@<TRIPOS>ATOM
      1 CA         27.2044   -6.1073    2.9963 C.3       0 UNK        -0.2020 
      2 C          27.1122   -4.5970    2.8365 C.2       0 UNK         0.4855 
      3 O          26.4516   -3.9355    3.6386 O.2       0 UNK        -0.5197 
      4 N          27.7778   -4.0464    1.8143 N.am      1 UNK        -0.4892 
      5 CA         27.7407   -2.6255    1.4537 C.3       1 UNK         0.0835 
      6 C6         29.0074   -2.2041    0.6655 C.3       12 UNK        -0.0855 
      7 S7         29.3617   -3.2107   -0.8176 S.3       12 UNK        -0.2931 
      8 C8         28.9597   -2.0290   -2.1376 C.3       12 UNK         0.0378 
      9 C9         29.4702   -2.5157   -3.4830 C.ar      12 UNK        -0.0802 
     10 C10        30.6902   -2.0554   -3.9829 C.ar      12 UNK        -0.0944 
     11 C11        31.1369   -2.4502   -5.2482 C.ar      12 UNK        -0.0787 
     12 C12        30.3546   -3.3285   -6.0091 C.ar      12 UNK        -0.0862 
     13 C13        29.1441   -3.8204   -5.5055 C.ar      12 UNK        -0.0733 
     14 C14        28.7134   -3.4102   -4.2402 C.ar      12 UNK        -0.0832 
     15 C15        28.3279   -4.8392   -6.2934 C.3       12 UNK         0.0240 
     16 S16        26.5657   -4.3806   -6.4439 S.3       12 UNK        -0.2522 
     17 C17        26.4696   -3.6703   -8.1230 C.3       12 UNK        -0.0967 
     18 CA         26.2936   -2.1335   -8.1652 C.3       5 UNK         0.0660 
     19 N          25.1728   -1.6597   -7.3477 N.am      5 UNK        -0.4015 
     20 C          24.6879   -0.4098   -7.3614 C.2       4 UNK         0.4946 
     21 O          25.0897    0.4640   -8.1317 O.2       4 UNK        -0.5353 
     22 CA         23.6139   -0.0474   -6.3215 C.3       4 UNK         0.0277 
     23 CB         22.2334    0.0415   -6.9921 C.3       4 UNK        -0.1981 
     24 N          23.5309   -0.9480   -5.1646 N.am      4 UNK        -0.4209 
     25 C          24.5000   -1.1705   -4.2643 C.2       3 UNK         0.4942 
     26 O          25.6498   -0.7333   -4.3606 O.2       3 UNK        -0.5208 
     27 CA         24.1112   -2.0803   -3.0852 C.3       3 UNK         0.0250 
     28 CB         24.5441   -3.5300   -3.3476 C.3       3 UNK        -0.1990 
     29 N          24.6534   -1.6424   -1.7966 N.am      3 UNK        -0.4232 
     30 C          24.3857   -0.4788   -1.1929 C.2       2 UNK         0.4993 
     31 O          23.6955    0.4056   -1.7027 O.2       2 UNK        -0.5286 
     32 CA         24.9188   -0.2509    0.2380 C.3       2 UNK         0.0209 
     33 CB         23.8051   -0.5372    1.2654 C.3       2 UNK        -0.1931 
     34 N          26.1624   -0.9356    0.6393 N.am      2 UNK        -0.4546 
     35 C          26.4221   -2.2487    0.7385 C.2       1 UNK         0.5154 
     36 O          25.6751   -3.1306    0.3058 O.2       1 UNK        -0.5181 
     37 C          27.6178   -1.3868   -7.8994 C.2       5 UNK         0.5014 
     38 O          28.4773   -1.3933   -8.7802 O.2       5 UNK        -0.5248 
     39 N          27.7420   -0.6992   -6.7524 N.am      6 UNK        -0.4434 
     40 CA         28.8398    0.2236   -6.4584 C.3       6 UNK         0.0363 
     41 CB         28.6700    0.7926   -5.0415 C.3       6 UNK        -0.1936 
     42 C          28.9525    1.3709   -7.4768 C.2       6 UNK         0.5081 
     43 O          30.0619    1.7132   -7.8861 O.2       6 UNK        -0.5248 
     44 N          27.8028    1.9183   -7.8985 N.am      7 UNK        -0.4718 
     45 CA         27.7198    2.9792   -8.9042 C.3       7 UNK         0.0273 
     46 CB         26.3454    3.6619   -8.8207 C.3       7 UNK        -0.1935 
     47 C          27.9838    2.4603  -10.3262 C.2       7 UNK         0.5018 
     48 O          28.5432    3.1971  -11.1380 O.2       7 UNK        -0.5186 
     49 N          27.5976    1.2044  -10.5963 N.am      8 UNK        -0.4240 
     50 CA         27.8670    0.5113  -11.8586 C.3       8 UNK         0.0235 
     51 CB         26.9880   -0.7455  -11.9675 C.3       8 UNK        -0.2000 
     52 C          29.3554    0.1571  -12.0103 C.2       8 UNK         0.4941 
     53 O          29.9202    0.3646  -13.0848 O.2       8 UNK        -0.5273 
     54 N          29.9650   -0.3485  -10.9282 N.am      9 UNK        -0.4262 
     55 CA         31.3957   -0.6439  -10.8352 C.3       9 UNK         0.0264 
     56 CB         31.6571   -1.4851   -9.5741 C.3       9 UNK        -0.1955 
     57 C          32.2717    0.6201  -10.8182 C.2       9 UNK         0.5031 
     58 O          33.3964    0.5727  -11.3183 O.2       9 UNK        -0.5390 
     59 N          31.7502    1.7060  -10.2250 N.am      10 UNK        -0.4204 
     60 CA         32.4172    2.9864   -9.9562 C.3       10 UNK         0.0237 
     61 CB         32.7728    3.7202  -11.2668 C.3       10 UNK        -0.1985 
     62 C          33.6141    2.8271   -8.9970 C.2       10 UNK         0.4970 
     63 O          34.6284    3.5112   -9.1487 O.2       10 UNK        -0.4914 
     64 N          33.4727    1.9046   -8.0385 N.am      11 UNK        -0.4285 
     65 CA         34.4670    1.5770   -7.0119 C.3       11 UNK         0.1007 
     66 C          34.5812    2.6578   -5.8994 C.2       11 UNK         0.5703 
     67 N          35.6693    2.6477   -5.1406 N.am      11 UNK        -0.7361 
     68 O          33.6981    3.4919   -5.7040 O.2       11 UNK        -0.4986 
     69 C69        34.2331    0.1491   -6.4470 C.3       12 UNK        -0.0947 
     70 S70        32.5491   -0.1207   -5.8003 S.3       12 UNK        -0.2240 
     71 C71        32.4722   -1.9403   -5.7776 C.3       12 UNK         0.0194 
     72 H72        27.6235   -6.3573    3.9706 H         1 UNK         0.0906 
     73 H73        26.2121   -6.5524    2.9272 H         1 UNK         0.0906 
     74 H74        27.8332   -6.5609    2.2303 H         1 UNK         0.0906 
     75 H75        28.2767   -4.6354    1.1618 H         1 UNK         0.3140 
     76 H76        27.7456   -2.0568    2.3870 H         1 UNK         0.1085 
     77 H77        28.9712   -1.1452    0.4044 H         1 UNK         0.0836 
     78 H78        29.8733   -2.2974    1.3231 H         1 UNK         0.0836 
     79 H79        29.3982   -1.0562   -1.9093 H         1 UNK         0.0731 
     80 H80        27.8792   -1.8785   -2.1789 H         1 UNK         0.0731 
     81 H81        31.2878   -1.3732   -3.3939 H         1 UNK         0.1312 
     82 H82        30.6970   -3.6433   -6.9854 H         1 UNK         0.1406 
     83 H83        27.7866   -3.7923   -3.8404 H         1 UNK         0.1631 
     84 H84        28.3857   -5.7940   -5.7694 H         1 UNK         0.0717 
     85 H85        28.7609   -5.0128   -7.2792 H         1 UNK         0.0717 
     86 H86        27.3306   -3.9782   -8.7194 H         1 UNK         0.0934 
     87 H87        25.6119   -4.1342   -8.6126 H         1 UNK         0.0934 
     88 H88        26.0288   -1.8835   -9.1943 H         1 UNK         0.0739 
     89 H89        24.8095   -2.3144   -6.6709 H         1 UNK         0.3093 
     90 H90        23.8710    0.9428   -5.9395 H         1 UNK         0.0818 
     91 H91        21.4769    0.4105   -6.2992 H         1 UNK         0.0819 
     92 H92        22.2537    0.7290   -7.8392 H         1 UNK         0.0819 
     93 H93        21.9032   -0.9278   -7.3679 H         1 UNK         0.0819 
     94 H94        22.6294   -1.3755   -5.0059 H         1 UNK         0.3041 
     95 H95        23.0236   -2.0663   -2.9873 H         1 UNK         0.0784 
     96 H96        25.6278   -3.6199   -3.3886 H         1 UNK         0.0793 
     97 H97        24.1842   -4.1992   -2.5657 H         1 UNK         0.0793 
     98 H98        24.1484   -3.8972   -4.2954 H         1 UNK         0.0793 
     99 H99        25.1684   -2.3297   -1.2518 H         1 UNK         0.3024 
    100 H100       25.1454    0.8155    0.2953 H         1 UNK         0.1171 
    101 H101       22.9034    0.0329    1.0368 H         1 UNK         0.0786 
    102 H102       24.1136   -0.2602    2.2735 H         1 UNK         0.0786 
    103 H103       23.5270   -1.5917    1.2777 H         1 UNK         0.0786 
    104 H104       26.8782   -0.3058    0.9759 H         1 UNK         0.2977 
    105 H105       27.0063   -0.7653   -6.0571 H         1 UNK         0.3127 
    106 H106       29.7635   -0.3518   -6.5013 H         1 UNK         0.0770 
    107 H107       27.7777    1.4143   -4.9589 H         1 UNK         0.0814 
    108 H108       29.5282    1.4064   -4.7650 H         1 UNK         0.0814 
    109 H109       28.5850   -0.0003   -4.3010 H         1 UNK         0.0814 
    110 H110       26.9249    1.5328   -7.5705 H         1 UNK         0.2983 
    111 H111       28.4846    3.7262   -8.6789 H         1 UNK         0.0947 
    112 H112       26.2773    4.4866   -9.5316 H         1 UNK         0.0806 
    113 H113       26.1668    4.0750   -7.8279 H         1 UNK         0.0806 
    114 H114       25.5337    2.9697   -9.0475 H         1 UNK         0.0806 
    115 H115       27.1414    0.6786   -9.8640 H         1 UNK         0.3000 
    116 H116       27.5975    1.1840  -12.6760 H         1 UNK         0.0850 
    117 H117       27.1038   -1.2123  -12.9465 H         1 UNK         0.0810 
    118 H118       25.9315   -0.5059  -11.8459 H         1 UNK         0.0810 
    119 H119       27.2533   -1.4947  -11.2218 H         1 UNK         0.0810 
    120 H120       29.4034   -0.5698  -10.1065 H         1 UNK         0.3040 
    121 H121       31.6787   -1.2346  -11.7090 H         1 UNK         0.0766 
    122 H122       32.7165   -1.7248   -9.4735 H         1 UNK         0.0812 
    123 H123       31.1114   -2.4282   -9.6068 H         1 UNK         0.0812 
    124 H124       31.3529   -0.9579   -8.6686 H         1 UNK         0.0812 
    125 H125       30.8509    1.5992   -9.7664 H         1 UNK         0.3205 
    126 H126       31.6866    3.5988   -9.4255 H         1 UNK         0.0754 
    127 H127       33.1362    4.7282  -11.0634 H         1 UNK         0.0769 
    128 H128       31.9008    3.8149  -11.9143 H         1 UNK         0.0769 
    129 H129       33.5518    3.2010  -11.8257 H         1 UNK         0.0769 
    130 H130       32.5777    1.4456   -7.9390 H         1 UNK         0.2981 
    131 H131       35.4368    1.5624   -7.5133 H         1 UNK         0.0541 
    132 H132       35.7615    3.3351   -4.4092 H         1 UNK         0.3459 
    133 H133       36.4006    1.9689   -5.2846 H         1 UNK         0.3459 
    134 H134       34.9535   -0.0866   -5.6620 H         1 UNK         0.0612 
    135 H135       34.4115   -0.5780   -7.2408 H         1 UNK         0.0612 
    136 H136       32.6563   -2.3157   -6.7851 H         1 UNK         0.0624 
    137 H137       33.2747   -2.3249   -5.1469 H         1 UNK         0.0624 
@<TRIPOS>BOND
     1    1    2 1    
     2    1   72 1    
     3    1   73 1    
     4    1   74 1    
     5    2    3 2    
     6    2    4 am   BACKBONE|DICT|INTERRES
     7    4    5 1    
     8    4   75 1    
     9    5    6 1    
    10    5   35 1    
    11    5   76 1    
    12    6    7 1    
    13    6   77 1    
    14    6   78 1    
    15    7    8 1    
    16    8    9 1    
    17    8   79 1    
    18    8   80 1    
    19    9   10 ar   
    20    9   14 ar   
    21   10   11 ar   
    22   10   81 1    
    23   11   12 ar   
    24   11   71 1    
    25   12   13 ar   
    26   12   82 1    
    27   13   14 ar   
    28   13   15 1    
    29   14   83 1    
    30   15   16 1    
    31   15   84 1    
    32   15   85 1    
    33   16   17 1    
    34   17   18 1    
    35   17   86 1    
    36   17   87 1    
    37   18   19 1    
    38   18   37 1    
    39   18   88 1    
    40   19   20 am   BACKBONE|DICT|INTERRES
    41   19   89 1    
    42   20   21 2    
    43   20   22 1    
    44   22   23 1    
    45   22   24 1    
    46   22   90 1    
    47   23   91 1    
    48   23   92 1    
    49   23   93 1    
    50   24   25 am   BACKBONE|DICT|INTERRES
    51   24   94 1    
    52   25   26 2    
    53   25   27 1    
    54   27   28 1    
    55   27   29 1    
    56   27   95 1    
    57   28   96 1    
    58   28   97 1    
    59   28   98 1    
    60   29   30 am   BACKBONE|DICT|INTERRES
    61   29   99 1    
    62   30   31 2    
    63   30   32 1    
    64   32   33 1    
    65   32   34 1    
    66   32  100 1    
    67   33  101 1    
    68   33  102 1    
    69   33  103 1    
    70   34   35 am   BACKBONE|DICT|INTERRES
    71   34  104 1    
    72   35   36 2    
    73   37   38 2    
    74   37   39 am   BACKBONE|DICT|INTERRES
    75   39   40 1    
    76   39  105 1    
    77   40   41 1    
    78   40   42 1    
    79   40  106 1    
    80   41  107 1    
    81   41  108 1    
    82   41  109 1    
    83   42   43 2    
    84   42   44 am   BACKBONE|DICT|INTERRES
    85   44   45 1    
    86   44  110 1    
    87   45   46 1    
    88   45   47 1    
    89   45  111 1    
    90   46  112 1    
    91   46  113 1    
    92   46  114 1    
    93   47   48 2    
    94   47   49 am   BACKBONE|DICT|INTERRES
    95   49   50 1    
    96   49  115 1    
    97   50   51 1    
    98   50   52 1    
    99   50  116 1    
   100   51  117 1    
   101   51  118 1    
   102   51  119 1    
   103   52   53 2    
   104   52   54 am   BACKBONE|DICT|INTERRES
   105   54   55 1    
   106   54  120 1    
   107   55   56 1    
   108   55   57 1    
   109   55  121 1    
   110   56  122 1    
   111   56  123 1    
   112   56  124 1    
   113   57   58 2    
   114   57   59 am   BACKBONE|DICT|INTERRES
   115   59   60 1    
   116   59  125 1    
   117   60   61 1    
   118   60   62 1    
   119   60  126 1    
   120   61  127 1    
   121   61  128 1    
   122   61  129 1    
   123   62   63 2    
   124   62   64 am   BACKBONE|DICT|INTERRES
   125   64   65 1    
   126   64  130 1    
   127   65   66 1    
   128   65   69 1    
   129   65  131 1    
   130   66   67 am   BACKBONE|DICT|INTERRES
   131   66   68 2    
   132   67  132 1    
   133   67  133 1    
   134   69   70 1    
   135   69  134 1    
   136   69  135 1    
   137   70   71 1    
   138   71  136 1    
   139   71  137 1    
@<TRIPOS>SUBSTRUCTURE
     1 UNK         1 GROUP             0       ****    0 ROOT    
