@<TRIPOS>MOLECULE
3R137
137   139    1
SMALL
USER_CHARGES


@<TRIPOS>ATOM
      1 CA         29.1614    0.2980   -1.4702 C.3       0 UNK        -0.2020 
      2 C          29.4362   -0.0226   -0.0037 C.2       0 UNK         0.4855 
      3 O          29.8078    0.8752    0.7493 O.2       0 UNK        -0.5197 
      4 N          29.2873   -1.2747    0.4515 N.am      1 UNK        -0.4892 
      5 CA         28.7733   -2.4360   -0.2848 C.3       1 UNK         0.0835 
      6 C6         29.1472   -3.7461    0.4519 C.3       12 UNK        -0.0855 
      7 S7         28.9780   -5.2562   -0.5611 S.3       12 UNK        -0.2931 
      8 C8         30.5393   -5.2821   -1.5013 C.3       12 UNK         0.0378 
      9 C9         30.3897   -4.5963   -2.8526 C.ar      12 UNK        -0.0802 
     10 C10        30.9607   -3.3427   -3.0885 C.ar      12 UNK        -0.0944 
     11 C11        30.8212   -2.7221   -4.3338 C.ar      12 UNK        -0.0787 
     12 C12        30.1220   -3.3759   -5.3543 C.ar      12 UNK        -0.0862 
     13 C13        29.5584   -4.6414   -5.1389 C.ar      12 UNK        -0.0733 
     14 C14        29.6952   -5.2378   -3.8818 C.ar      12 UNK        -0.0832 
     15 C15        28.8446   -5.4253   -6.2425 C.3       12 UNK         0.0240 
     16 S16        28.0509   -4.4187   -7.5395 S.3       12 UNK        -0.2522 
     17 C17        26.7180   -3.6134   -6.5927 C.3       12 UNK        -0.0967 
     18 CA         26.0834   -2.4308   -7.3631 C.3       5 UNK         0.0660 
     19 N          24.8443   -1.9714   -6.7395 N.am      5 UNK        -0.4015 
     20 C          23.8672   -1.3207   -7.3874 C.2       4 UNK         0.4946 
     21 O          23.8497   -1.1439   -8.6058 O.2       4 UNK        -0.5353 
     22 CA         22.7152   -0.7567   -6.5356 C.3       4 UNK         0.0277 
     23 CB         21.5472   -1.7548   -6.4826 C.3       4 UNK        -0.1981 
     24 N          23.1159   -0.4050   -5.1703 N.am      4 UNK        -0.4209 
     25 C          23.9741    0.5766   -4.8568 C.2       3 UNK         0.4942 
     26 O          24.5038    1.3165   -5.6850 O.2       3 UNK        -0.5208 
     27 CA         24.3464    0.7156   -3.3709 C.3       3 UNK         0.0250 
     28 CB         23.3149    1.5847   -2.6343 C.3       3 UNK        -0.1990 
     29 N          24.4985   -0.5688   -2.6749 N.am      3 UNK        -0.4232 
     30 C          25.3740   -1.5226   -3.0199 C.2       2 UNK         0.4993 
     31 O          26.1167   -1.4502   -4.0021 O.2       2 UNK        -0.5286 
     32 CA         25.4277   -2.7786   -2.1426 C.3       2 UNK         0.0209 
     33 CB         25.0448   -4.0286   -2.9524 C.3       2 UNK        -0.1931 
     34 N          26.7863   -2.9343   -1.6306 N.am      2 UNK        -0.4546 
     35 C          27.2567   -2.3086   -0.5457 C.2       1 UNK         0.5154 
     36 O          26.5509   -1.6436    0.2174 O.2       1 UNK        -0.5181 
     37 C          27.0518   -1.2456   -7.5102 C.2       5 UNK         0.5014 
     38 O          27.5264   -0.9863   -8.6164 O.2       5 UNK        -0.5248 
     39 N          27.3004   -0.5272   -6.4044 N.am      6 UNK        -0.4434 
     40 CA         28.2205    0.6108   -6.3197 C.3       6 UNK         0.0363 
     41 CB         28.2508    1.1376   -4.8803 C.3       6 UNK        -0.1936 
     42 C          27.9197    1.7468   -7.3088 C.2       6 UNK         0.5081 
     43 O          28.8598    2.3555   -7.8157 O.2       6 UNK        -0.5248 
     44 N          26.6357    1.9662   -7.6230 N.am      7 UNK        -0.4718 
     45 CA         26.1672    2.8927   -8.6590 C.3       7 UNK         0.0273 
     46 CB         24.6300    2.8889   -8.6747 C.3       7 UNK        -0.1935 
     47 C          26.7159    2.6059  -10.0725 C.2       7 UNK         0.5018 
     48 O          26.8150    3.5400  -10.8694 O.2       7 UNK        -0.5186 
     49 N          27.0642    1.3430  -10.3561 N.am      8 UNK        -0.4240 
     50 CA         27.6892    0.9090  -11.6057 C.3       8 UNK         0.0235 
     51 CB         26.9491   -0.3299  -12.1376 C.3       8 UNK        -0.2000 
     52 C          29.1812    0.5988  -11.4076 C.2       8 UNK         0.4941 
     53 O          29.9930    0.9869  -12.2482 O.2       8 UNK        -0.5273 
     54 N          29.5166   -0.1092  -10.3200 N.am      9 UNK        -0.4262 
     55 CA         30.8613   -0.6098  -10.0265 C.3       9 UNK         0.0264 
     56 CB         30.7635   -1.7111   -8.9582 C.3       9 UNK        -0.1955 
     57 C          31.8579    0.4683   -9.5728 C.2       9 UNK         0.5031 
     58 O          33.0612    0.2698   -9.7518 O.2       9 UNK        -0.5390 
     59 N          31.3632    1.5564   -8.9632 N.am      10 UNK        -0.4204 
     60 CA         32.0920    2.6717   -8.3415 C.3       10 UNK         0.0237 
     61 CB         32.9800    3.4205   -9.3555 C.3       10 UNK        -0.1985 
     62 C          32.8798    2.2789   -7.0780 C.2       10 UNK         0.4970 
     63 O          32.7039    2.9223   -6.0425 O.2       10 UNK        -0.4914 
     64 N          33.7183    1.2404   -7.1839 N.am      11 UNK        -0.4285 
     65 CA         34.6272    0.7278   -6.1460 C.3       11 UNK         0.1007 
     66 C          35.6778    1.7849   -5.6777 C.2       11 UNK         0.5703 
     67 N          36.2668    1.6353   -4.4980 N.am      11 UNK        -0.7361 
     68 O          36.0166    2.7176   -6.4052 O.2       11 UNK        -0.4986 
     69 C69        33.8668    0.0155   -4.9870 C.3       12 UNK        -0.0947 
     70 S70        32.9631   -1.4673   -5.5493 S.3       12 UNK        -0.2240 
     71 C71        31.4345   -1.3497   -4.5726 C.3       12 UNK         0.0194 
     72 H72        29.6815   -0.3911   -2.1332 H         1 UNK         0.0906 
     73 H73        28.0931    0.2578   -1.6814 H         1 UNK         0.0906 
     74 H74        29.5073    1.3033   -1.7105 H         1 UNK         0.0906 
     75 H75        29.4521   -1.4366    1.4348 H         1 UNK         0.3140 
     76 H76        29.2664   -2.4472   -1.2540 H         1 UNK         0.1085 
     77 H77        30.1791   -3.6969    0.8041 H         1 UNK         0.0836 
     78 H78        28.5398   -3.8651    1.3515 H         1 UNK         0.0836 
     79 H79        30.8311   -6.3212   -1.6619 H         1 UNK         0.0731 
     80 H80        31.3440   -4.8321   -0.9181 H         1 UNK         0.0731 
     81 H81        31.5135   -2.8483   -2.3012 H         1 UNK         0.1312 
     82 H82        30.0374   -2.9022   -6.3209 H         1 UNK         0.1406 
     83 H83        29.2697   -6.2164   -3.7021 H         1 UNK         0.1631 
     84 H84        28.0847   -6.0770   -5.8081 H         1 UNK         0.0717 
     85 H85        29.5747   -6.0801   -6.7195 H         1 UNK         0.0717 
     86 H86        25.9603   -4.3703   -6.3840 H         1 UNK         0.0934 
     87 H87        27.1025   -3.2923   -5.6233 H         1 UNK         0.0934 
     88 H88        25.8420   -2.7841   -8.3685 H         1 UNK         0.0739 
     89 H89        24.8105   -2.0152   -5.7304 H         1 UNK         0.3093 
     90 H90        22.3657    0.1551   -7.0252 H         1 UNK         0.0818 
     91 H91        20.6896   -1.3354   -5.9562 H         1 UNK         0.0819 
     92 H92        21.2114   -2.0149   -7.4876 H         1 UNK         0.0819 
     93 H93        21.8287   -2.6828   -5.9833 H         1 UNK         0.0819 
     94 H94        22.7249   -0.9570   -4.4207 H         1 UNK         0.3041 
     95 H95        25.3103    1.2253   -3.3237 H         1 UNK         0.0784 
     96 H96        23.1994    2.5525   -3.1249 H         1 UNK         0.0793 
     97 H97        22.3315    1.1136   -2.6073 H         1 UNK         0.0793 
     98 H98        23.6223    1.7807   -1.6068 H         1 UNK         0.0793 
     99 H99        23.9306   -0.7026   -1.8501 H         1 UNK         0.3024 
    100 H100       24.7275   -2.6783   -1.3099 H         1 UNK         0.1171 
    101 H101       24.0442   -3.9315   -3.3757 H         1 UNK         0.0786 
    102 H102       25.7346   -4.2076   -3.7773 H         1 UNK         0.0786 
    103 H103       25.0446   -4.9189   -2.3232 H         1 UNK         0.0786 
    104 H104       27.4275   -3.4567   -2.2115 H         1 UNK         0.2977 
    105 H105       26.8606   -0.8158   -5.5310 H         1 UNK         0.3127 
    106 H106       29.2134    0.2333   -6.5659 H         1 UNK         0.0770 
    107 H107       27.2921    1.5673   -4.5904 H         1 UNK         0.0814 
    108 H108       29.0088    1.9132   -4.7628 H         1 UNK         0.0814 
    109 H109       28.4867    0.3380   -4.1803 H         1 UNK         0.0814 
    110 H110       25.9202    1.4728   -7.0964 H         1 UNK         0.2983 
    111 H111       26.5072    3.8921   -8.3799 H         1 UNK         0.0947 
    112 H112       24.2425    3.5701   -9.4335 H         1 UNK         0.0806 
    113 H113       24.2232    3.2096   -7.7155 H         1 UNK         0.0806 
    114 H114       24.2332    1.8959   -8.8911 H         1 UNK         0.0806 
    115 H115       26.9765    0.6410   -9.6280 H         1 UNK         0.3000 
    116 H116       27.6134    1.6936  -12.3617 H         1 UNK         0.0850 
    117 H117       27.3970   -0.6837  -13.0672 H         1 UNK         0.0810 
    118 H118       25.9033   -0.1041  -12.3470 H         1 UNK         0.0810 
    119 H119       26.9750   -1.1564  -11.4259 H         1 UNK         0.0810 
    120 H120       28.7751   -0.4185   -9.6909 H         1 UNK         0.3040 
    121 H121       31.2594   -1.0577  -10.9396 H         1 UNK         0.0766 
    122 H122       30.3735   -1.3204   -8.0187 H         1 UNK         0.0812 
    123 H123       31.7426   -2.1441   -8.7480 H         1 UNK         0.0812 
    124 H124       30.1110   -2.5233   -9.2795 H         1 UNK         0.0812 
    125 H125       30.3570    1.6097   -8.8264 H         1 UNK         0.3205 
    126 H126       31.3221    3.3735   -8.0174 H         1 UNK         0.0754 
    127 H127       33.4247    4.3059   -8.8994 H         1 UNK         0.0769 
    128 H128       32.4008    3.7545  -10.2163 H         1 UNK         0.0769 
    129 H129       33.7999    2.8027   -9.7226 H         1 UNK         0.0769 
    130 H130       33.7702    0.7840   -8.0908 H         1 UNK         0.2981 
    131 H131       35.2278   -0.0294   -6.6508 H         1 UNK         0.0541 
    132 H132       36.0312    0.8670   -3.8904 H         1 UNK         0.3459 
    133 H133       36.9612    2.3072   -4.2107 H         1 UNK         0.3459 
    134 H134       33.1831    0.7114   -4.4985 H         1 UNK         0.0612 
    135 H135       34.5547   -0.3297   -4.2148 H         1 UNK         0.0612 
    136 H136       31.6487   -0.8682   -3.6174 H         1 UNK         0.0624 
    137 H137       30.7261   -0.7051   -5.0908 H         1 UNK         0.0624 
@<TRIPOS>BOND
     1    1    2 1    
     2    1   72 1    
     3    1   73 1    
     4    1   74 1    
     5    2    3 2    
     6    2    4 am   BACKBONE|DICT|INTERRES
     7    4    5 1    
     8    4   75 1    
     9    5    6 1    
    10    5   35 1    
    11    5   76 1    
    12    6    7 1    
    13    6   77 1    
    14    6   78 1    
    15    7    8 1    
    16    8    9 1    
    17    8   79 1    
    18    8   80 1    
    19    9   10 ar   
    20    9   14 ar   
    21   10   11 ar   
    22   10   81 1    
    23   11   12 ar   
    24   11   71 1    
    25   12   13 ar   
    26   12   82 1    
    27   13   14 ar   
    28   13   15 1    
    29   14   83 1    
    30   15   16 1    
    31   15   84 1    
    32   15   85 1    
    33   16   17 1    
    34   17   18 1    
    35   17   86 1    
    36   17   87 1    
    37   18   19 1    
    38   18   37 1    
    39   18   88 1    
    40   19   20 am   BACKBONE|DICT|INTERRES
    41   19   89 1    
    42   20   21 2    
    43   20   22 1    
    44   22   23 1    
    45   22   24 1    
    46   22   90 1    
    47   23   91 1    
    48   23   92 1    
    49   23   93 1    
    50   24   25 am   BACKBONE|DICT|INTERRES
    51   24   94 1    
    52   25   26 2    
    53   25   27 1    
    54   27   28 1    
    55   27   29 1    
    56   27   95 1    
    57   28   96 1    
    58   28   97 1    
    59   28   98 1    
    60   29   30 am   BACKBONE|DICT|INTERRES
    61   29   99 1    
    62   30   31 2    
    63   30   32 1    
    64   32   33 1    
    65   32   34 1    
    66   32  100 1    
    67   33  101 1    
    68   33  102 1    
    69   33  103 1    
    70   34   35 am   BACKBONE|DICT|INTERRES
    71   34  104 1    
    72   35   36 2    
    73   37   38 2    
    74   37   39 am   BACKBONE|DICT|INTERRES
    75   39   40 1    
    76   39  105 1    
    77   40   41 1    
    78   40   42 1    
    79   40  106 1    
    80   41  107 1    
    81   41  108 1    
    82   41  109 1    
    83   42   43 2    
    84   42   44 am   BACKBONE|DICT|INTERRES
    85   44   45 1    
    86   44  110 1    
    87   45   46 1    
    88   45   47 1    
    89   45  111 1    
    90   46  112 1    
    91   46  113 1    
    92   46  114 1    
    93   47   48 2    
    94   47   49 am   BACKBONE|DICT|INTERRES
    95   49   50 1    
    96   49  115 1    
    97   50   51 1    
    98   50   52 1    
    99   50  116 1    
   100   51  117 1    
   101   51  118 1    
   102   51  119 1    
   103   52   53 2    
   104   52   54 am   BACKBONE|DICT|INTERRES
   105   54   55 1    
   106   54  120 1    
   107   55   56 1    
   108   55   57 1    
   109   55  121 1    
   110   56  122 1    
   111   56  123 1    
   112   56  124 1    
   113   57   58 2    
   114   57   59 am   BACKBONE|DICT|INTERRES
   115   59   60 1    
   116   59  125 1    
   117   60   61 1    
   118   60   62 1    
   119   60  126 1    
   120   61  127 1    
   121   61  128 1    
   122   61  129 1    
   123   62   63 2    
   124   62   64 am   BACKBONE|DICT|INTERRES
   125   64   65 1    
   126   64  130 1    
   127   65   66 1    
   128   65   69 1    
   129   65  131 1    
   130   66   67 am   BACKBONE|DICT|INTERRES
   131   66   68 2    
   132   67  132 1    
   133   67  133 1    
   134   69   70 1    
   135   69  134 1    
   136   69  135 1    
   137   70   71 1    
   138   71  136 1    
   139   71  137 1    
@<TRIPOS>SUBSTRUCTURE
     1 UNK         1 GROUP             0       ****    0 ROOT    
