@<TRIPOS>MOLECULE
3R137
137   139    1
SMALL
USER_CHARGES


@<TRIPOS>ATOM
      1 CA         31.3006    0.7462   -3.1729 C.3       0 UNK        -0.2020 
      2 C          30.3840    0.2209   -2.0788 C.2       0 UNK         0.4855 
      3 O          30.0599    0.9570   -1.1471 O.2       0 UNK        -0.5197 
      4 N          29.9740   -1.0492   -2.1973 N.am      1 UNK        -0.4892 
      5 CA         29.1155   -1.7923   -1.2618 C.3       1 UNK         0.0835 
      6 C6         29.7883   -2.1164    0.1022 C.3       12 UNK        -0.0855 
      7 S7         31.4530   -2.8661   -0.0232 S.3       12 UNK        -0.2931 
      8 C8         31.1137   -4.5589   -0.6200 C.3       12 UNK         0.0378 
      9 C9         30.8193   -4.5898   -2.1150 C.ar      12 UNK        -0.0802 
     10 C10        31.7716   -4.1237   -3.0274 C.ar      12 UNK        -0.0944 
     11 C11        31.4897   -4.0875   -4.3954 C.ar      12 UNK        -0.0787 
     12 C12        30.2419   -4.5215   -4.8516 C.ar      12 UNK        -0.0862 
     13 C13        29.2894   -5.0113   -3.9520 C.ar      12 UNK        -0.0733 
     14 C14        29.5908   -5.0638   -2.5879 C.ar      12 UNK        -0.0832 
     15 C15        27.9380   -5.4906   -4.4559 C.3       12 UNK         0.0240 
     16 S16        26.6230   -4.2727   -4.1257 S.3       12 UNK        -0.2522 
     17 C17        25.3697   -4.8225   -5.3434 C.3       12 UNK        -0.0967 
     18 CA         25.2070   -3.9519   -6.6246 C.3       5 UNK         0.0660 
     19 N          24.3320   -2.7942   -6.4062 N.am      5 UNK        -0.4015 
     20 C          23.3923   -2.3950   -7.2774 C.2       4 UNK         0.4946 
     21 O          23.1827   -2.9465   -8.3588 O.2       4 UNK        -0.5353 
     22 CA         22.5151   -1.1920   -6.8870 C.3       4 UNK         0.0277 
     23 CB         21.2733   -1.6647   -6.1135 C.3       4 UNK        -0.1981 
     24 N          23.2181   -0.1800   -6.1002 N.am      4 UNK        -0.4209 
     25 C          24.1745    0.6259   -6.5792 C.2       3 UNK         0.4942 
     26 O          24.5616    0.6213   -7.7483 O.2       3 UNK        -0.5208 
     27 CA         24.8397    1.5838   -5.5749 C.3       3 UNK         0.0250 
     28 CB         24.0904    2.9253   -5.5365 C.3       3 UNK        -0.1990 
     29 N          24.9672    1.0565   -4.2097 N.am      3 UNK        -0.4232 
     30 C          25.5770   -0.0914   -3.8880 C.2       2 UNK         0.4993 
     31 O          26.0059   -0.8965   -4.7186 O.2       2 UNK        -0.5286 
     32 CA         25.7154   -0.4223   -2.4034 C.3       2 UNK         0.0209 
     33 CB         24.5886   -1.3658   -1.9461 C.3       2 UNK        -0.1931 
     34 N          27.0124   -1.0656   -2.2446 N.am      2 UNK        -0.4546 
     35 C          27.7231   -1.1457   -1.1167 C.2       1 UNK         0.5154 
     36 O          27.3288   -0.7257   -0.0263 O.2       1 UNK        -0.5181 
     37 C          26.5442   -3.5253   -7.2634 C.2       5 UNK         0.5014 
     38 O          27.0706   -4.2467   -8.1115 O.2       5 UNK        -0.5248 
     39 N          27.0674   -2.3660   -6.8433 N.am      6 UNK        -0.4434 
     40 CA         28.3802   -1.8424   -7.2132 C.3       6 UNK         0.0363 
     41 CB         28.9814   -1.1433   -5.9829 C.3       6 UNK        -0.1936 
     42 C          28.3430   -0.9012   -8.4290 C.2       6 UNK         0.5081 
     43 O          29.3436   -0.2313   -8.6816 O.2       6 UNK        -0.5248 
     44 N          27.2083   -0.8414   -9.1434 N.am      7 UNK        -0.4718 
     45 CA         26.9676   -0.0637  -10.3680 C.3       7 UNK         0.0273 
     46 CB         27.7718   -0.6583  -11.5441 C.3       7 UNK        -0.1935 
     47 C          27.2304    1.4409  -10.1692 C.2       7 UNK         0.5018 
     48 O          28.1066    2.0106  -10.8219 O.2       7 UNK        -0.5186 
     49 N          26.4830    2.0359   -9.2290 N.am      8 UNK        -0.4240 
     50 CA         26.6130    3.4143   -8.7385 C.3       8 UNK         0.0235 
     51 CB         26.3252    4.4439   -9.8529 C.3       8 UNK        -0.2000 
     52 C          27.9484    3.6600   -8.0071 C.2       8 UNK         0.4941 
     53 O          28.5218    4.7446   -8.1212 O.2       8 UNK        -0.5273 
     54 N          28.3964    2.6437   -7.2523 N.am      9 UNK        -0.4262 
     55 CA         29.6120    2.6090   -6.4301 C.3       9 UNK         0.0264 
     56 CB         29.5195    3.6160   -5.2634 C.3       9 UNK        -0.1955 
     57 C          30.9054    2.7473   -7.2552 C.2       9 UNK         0.5031 
     58 O          31.8220    3.4645   -6.8489 O.2       9 UNK        -0.5390 
     59 N          30.9761    2.0301   -8.3861 N.am      10 UNK        -0.4204 
     60 CA         32.1219    2.0161   -9.3009 C.3       10 UNK         0.0237 
     61 CB         31.7493    1.2437  -10.5766 C.3       10 UNK        -0.1985 
     62 C          33.4000    1.4360   -8.6710 C.2       10 UNK         0.4970 
     63 O          34.4948    1.8798   -9.0195 O.2       10 UNK        -0.4914 
     64 N          33.2387    0.4810   -7.7456 N.am      11 UNK        -0.4285 
     65 CA         34.3197   -0.0703   -6.9161 C.3       11 UNK         0.1007 
     66 C          34.7314    0.8230   -5.7058 C.2       11 UNK         0.5703 
     67 N          34.0991    1.9666   -5.4620 N.am      11 UNK        -0.7361 
     68 O          35.6618    0.4791   -4.9806 O.2       11 UNK        -0.4986 
     69 C69        34.0407   -1.5441   -6.5173 C.3       12 UNK        -0.0947 
     70 S70        32.5635   -1.7799   -5.4749 S.3       12 UNK        -0.2240 
     71 C71        32.5429   -3.5933   -5.3744 C.3       12 UNK         0.0194 
     72 H72        31.3844    1.8311   -3.1202 H         1 UNK         0.0906 
     73 H73        30.9218    0.4849   -4.1596 H         1 UNK         0.0906 
     74 H74        32.3003    0.3255   -3.0642 H         1 UNK         0.0906 
     75 H75        30.3161   -1.5960   -2.9758 H         1 UNK         0.3140 
     76 H76        28.9032   -2.7399   -1.7457 H         1 UNK         0.1085 
     77 H77        29.8906   -1.2037    0.6921 H         1 UNK         0.0836 
     78 H78        29.1533   -2.7825    0.6893 H         1 UNK         0.0836 
     79 H79        30.2940   -4.9904   -0.0436 H         1 UNK         0.0731 
     80 H80        31.9881   -5.1810   -0.4243 H         1 UNK         0.0731 
     81 H81        32.7283   -3.7687   -2.6684 H         1 UNK         0.1312 
     82 H82        30.0148   -4.4839   -5.9084 H         1 UNK         0.1406 
     83 H83        28.8498   -5.4369   -1.8935 H         1 UNK         0.1631 
     84 H84        27.6787   -6.4387   -3.9824 H         1 UNK         0.0717 
     85 H85        27.9942   -5.6876   -5.5278 H         1 UNK         0.0717 
     86 H86        25.6017   -5.8470   -5.6396 H         1 UNK         0.0934 
     87 H87        24.4117   -4.8988   -4.8265 H         1 UNK         0.0934 
     88 H88        24.7269   -4.6044   -7.3576 H         1 UNK         0.0739 
     89 H89        24.4990   -2.2527   -5.5675 H         1 UNK         0.3093 
     90 H90        22.1782   -0.7204   -7.8130 H         1 UNK         0.0818 
     91 H91        20.7133   -2.4034   -6.6891 H         1 UNK         0.0819 
     92 H92        21.5392   -2.1272   -5.1620 H         1 UNK         0.0819 
     93 H93        20.5946   -0.8368   -5.9074 H         1 UNK         0.0819 
     94 H94        22.9677   -0.0983   -5.1257 H         1 UNK         0.3041 
     95 H95        25.8516    1.7702   -5.9384 H         1 UNK         0.0784 
     96 H96        23.9431    3.3273   -6.5397 H         1 UNK         0.0793 
     97 H97        23.1032    2.8225   -5.0840 H         1 UNK         0.0793 
     98 H98        24.6441    3.6730   -4.9682 H         1 UNK         0.0793 
     99 H99        24.6222    1.6486   -3.4673 H         1 UNK         0.3024 
    100 H100       25.6944    0.5004   -1.8189 H         1 UNK         0.1171 
    101 H101       23.6100   -0.9039   -2.0823 H         1 UNK         0.0786 
    102 H102       24.5927   -2.2999   -2.5101 H         1 UNK         0.0786 
    103 H103       24.6836   -1.6152   -0.8892 H         1 UNK         0.0786 
    104 H104       27.3974   -1.4201   -3.1120 H         1 UNK         0.2977 
    105 H105       26.5808   -1.8473   -6.1122 H         1 UNK         0.3127 
    106 H106       29.0390   -2.6712   -7.4798 H         1 UNK         0.0770 
    107 H107       28.3709   -0.3014   -5.6588 H         1 UNK         0.0814 
    108 H108       29.9787   -0.7632   -6.1981 H         1 UNK         0.0814 
    109 H109       29.0722   -1.8323   -5.1435 H         1 UNK         0.0814 
    110 H110       26.4292   -1.3941   -8.8140 H         1 UNK         0.2983 
    111 H111       25.9072   -0.1667  -10.6049 H         1 UNK         0.0947 
    112 H112       28.8475   -0.5789  -11.3816 H         1 UNK         0.0806 
    113 H113       27.5451   -0.1363  -12.4745 H         1 UNK         0.0806 
    114 H114       27.5329   -1.7108  -11.6959 H         1 UNK         0.0806 
    115 H115       25.7810    1.4665   -8.7543 H         1 UNK         0.3000 
    116 H116       25.8369    3.5373   -7.9835 H         1 UNK         0.0850 
    117 H117       26.2694    5.4537   -9.4446 H         1 UNK         0.0810 
    118 H118       25.3738    4.2414  -10.3445 H         1 UNK         0.0810 
    119 H119       27.1042    4.4480  -10.6156 H         1 UNK         0.0810 
    120 H120       27.8689    1.7840   -7.2856 H         1 UNK         0.3040 
    121 H121       29.6553    1.6167   -5.9866 H         1 UNK         0.0766 
    122 H122       29.5048    4.6471   -5.6173 H         1 UNK         0.0812 
    123 H123       30.3740    3.5196   -4.5933 H         1 UNK         0.0812 
    124 H124       28.6217    3.4517   -4.6676 H         1 UNK         0.0812 
    125 H125       30.2148    1.3902   -8.6123 H         1 UNK         0.3205 
    126 H126       32.3333    3.0510   -9.5777 H         1 UNK         0.0754 
    127 H127       32.5712    1.2514  -11.2937 H         1 UNK         0.0769 
    128 H128       30.8842    1.6879  -11.0696 H         1 UNK         0.0769 
    129 H129       31.5108    0.2011  -10.3622 H         1 UNK         0.0769 
    130 H130       32.3056    0.1691   -7.5220 H         1 UNK         0.2981 
    131 H131       35.2135   -0.1018   -7.5418 H         1 UNK         0.0541 
    132 H132       34.3964    2.5264   -4.6794 H         1 UNK         0.3459 
    133 H133       33.3570    2.3039   -6.0626 H         1 UNK         0.3459 
    134 H134       34.9024   -1.9654   -5.9963 H         1 UNK         0.0612 
    135 H135       33.9188   -2.1451   -7.4198 H         1 UNK         0.0612 
    136 H136       33.5261   -3.9496   -5.0630 H         1 UNK         0.0624 
    137 H137       32.3642   -4.0059   -6.3686 H         1 UNK         0.0624 
@<TRIPOS>BOND
     1    1    2 1    
     2    1   72 1    
     3    1   73 1    
     4    1   74 1    
     5    2    3 2    
     6    2    4 am   BACKBONE|DICT|INTERRES
     7    4    5 1    
     8    4   75 1    
     9    5    6 1    
    10    5   35 1    
    11    5   76 1    
    12    6    7 1    
    13    6   77 1    
    14    6   78 1    
    15    7    8 1    
    16    8    9 1    
    17    8   79 1    
    18    8   80 1    
    19    9   10 ar   
    20    9   14 ar   
    21   10   11 ar   
    22   10   81 1    
    23   11   12 ar   
    24   11   71 1    
    25   12   13 ar   
    26   12   82 1    
    27   13   14 ar   
    28   13   15 1    
    29   14   83 1    
    30   15   16 1    
    31   15   84 1    
    32   15   85 1    
    33   16   17 1    
    34   17   18 1    
    35   17   86 1    
    36   17   87 1    
    37   18   19 1    
    38   18   37 1    
    39   18   88 1    
    40   19   20 am   BACKBONE|DICT|INTERRES
    41   19   89 1    
    42   20   21 2    
    43   20   22 1    
    44   22   23 1    
    45   22   24 1    
    46   22   90 1    
    47   23   91 1    
    48   23   92 1    
    49   23   93 1    
    50   24   25 am   BACKBONE|DICT|INTERRES
    51   24   94 1    
    52   25   26 2    
    53   25   27 1    
    54   27   28 1    
    55   27   29 1    
    56   27   95 1    
    57   28   96 1    
    58   28   97 1    
    59   28   98 1    
    60   29   30 am   BACKBONE|DICT|INTERRES
    61   29   99 1    
    62   30   31 2    
    63   30   32 1    
    64   32   33 1    
    65   32   34 1    
    66   32  100 1    
    67   33  101 1    
    68   33  102 1    
    69   33  103 1    
    70   34   35 am   BACKBONE|DICT|INTERRES
    71   34  104 1    
    72   35   36 2    
    73   37   38 2    
    74   37   39 am   BACKBONE|DICT|INTERRES
    75   39   40 1    
    76   39  105 1    
    77   40   41 1    
    78   40   42 1    
    79   40  106 1    
    80   41  107 1    
    81   41  108 1    
    82   41  109 1    
    83   42   43 2    
    84   42   44 am   BACKBONE|DICT|INTERRES
    85   44   45 1    
    86   44  110 1    
    87   45   46 1    
    88   45   47 1    
    89   45  111 1    
    90   46  112 1    
    91   46  113 1    
    92   46  114 1    
    93   47   48 2    
    94   47   49 am   BACKBONE|DICT|INTERRES
    95   49   50 1    
    96   49  115 1    
    97   50   51 1    
    98   50   52 1    
    99   50  116 1    
   100   51  117 1    
   101   51  118 1    
   102   51  119 1    
   103   52   53 2    
   104   52   54 am   BACKBONE|DICT|INTERRES
   105   54   55 1    
   106   54  120 1    
   107   55   56 1    
   108   55   57 1    
   109   55  121 1    
   110   56  122 1    
   111   56  123 1    
   112   56  124 1    
   113   57   58 2    
   114   57   59 am   BACKBONE|DICT|INTERRES
   115   59   60 1    
   116   59  125 1    
   117   60   61 1    
   118   60   62 1    
   119   60  126 1    
   120   61  127 1    
   121   61  128 1    
   122   61  129 1    
   123   62   63 2    
   124   62   64 am   BACKBONE|DICT|INTERRES
   125   64   65 1    
   126   64  130 1    
   127   65   66 1    
   128   65   69 1    
   129   65  131 1    
   130   66   67 am   BACKBONE|DICT|INTERRES
   131   66   68 2    
   132   67  132 1    
   133   67  133 1    
   134   69   70 1    
   135   69  134 1    
   136   69  135 1    
   137   70   71 1    
   138   71  136 1    
   139   71  137 1    
@<TRIPOS>SUBSTRUCTURE
     1 UNK         1 GROUP             0       ****    0 ROOT    
