@<TRIPOS>MOLECULE
3R137
137   139    1
SMALL
USER_CHARGES


@<TRIPOS>ATOM
      1 CA         30.8917    1.0623   -0.7638 C.3       0 UNK        -0.2020 
      2 C          30.0505   -0.1442   -0.3725 C.2       0 UNK         0.4855 
      3 O          29.6666   -0.2614    0.7913 O.2       0 UNK        -0.5197 
      4 N          29.7837   -1.0335   -1.3389 N.am      1 UNK        -0.4892 
      5 CA         28.9460   -2.2376   -1.2543 C.3       1 UNK         0.0835 
      6 C6         29.3206   -3.1795   -0.0742 C.3       12 UNK        -0.0855 
      7 S7         28.8242   -4.9161   -0.3525 S.3       12 UNK        -0.2931 
      8 C8         30.3492   -5.6410   -1.0392 C.3       12 UNK         0.0378 
      9 C9         30.6917   -5.0237   -2.3858 C.ar      12 UNK        -0.0802 
     10 C10        31.7068   -4.0662   -2.4849 C.ar      12 UNK        -0.0944 
     11 C11        31.9730   -3.4462   -3.7079 C.ar      12 UNK        -0.0787 
     12 C12        31.2370   -3.8069   -4.8391 C.ar      12 UNK        -0.0862 
     13 C13        30.2080   -4.7474   -4.7481 C.ar      12 UNK        -0.0733 
     14 C14        29.9518   -5.3677   -3.5220 C.ar      12 UNK        -0.0832 
     15 C15        29.3439   -5.0560   -5.9629 C.3       12 UNK         0.0240 
     16 S16        27.6922   -4.2945   -5.8220 S.3       12 UNK        -0.2522 
     17 C17        28.0876   -2.5133   -5.7631 C.3       12 UNK        -0.0967 
     18 CA         27.3667   -1.6952   -6.8611 C.3       5 UNK         0.0660 
     19 N          25.9073   -1.8040   -6.7788 N.am      5 UNK        -0.4015 
     20 C          25.0456   -1.3421   -7.6958 C.2       4 UNK         0.4946 
     21 O          25.3851   -0.7967   -8.7456 O.2       4 UNK        -0.5353 
     22 CA         23.5491   -1.4775   -7.3666 C.3       4 UNK         0.0277 
     23 CB         23.0489   -2.8949   -7.6883 C.3       4 UNK        -0.1981 
     24 N          23.2455   -1.1507   -5.9704 N.am      4 UNK        -0.4209 
     25 C          23.3834    0.0707   -5.4334 C.2       3 UNK         0.4942 
     26 O          23.7285    1.0637   -6.0711 O.2       3 UNK        -0.5208 
     27 CA         23.1502    0.1987   -3.9177 C.3       3 UNK         0.0250 
     28 CB         21.6575    0.4071   -3.6166 C.3       3 UNK        -0.1990 
     29 N          23.6588   -0.9367   -3.1378 N.am      3 UNK        -0.4232 
     30 C          24.9298   -1.3625   -3.1463 C.2       2 UNK         0.4993 
     31 O          25.8101   -0.8662   -3.8536 O.2       2 UNK        -0.5286 
     32 CA         25.2468   -2.5846   -2.2671 C.3       2 UNK         0.0209 
     33 CB         24.7254   -3.8700   -2.9326 C.3       2 UNK        -0.1931 
     34 N          26.6826   -2.7404   -2.0240 N.am      2 UNK        -0.4546 
     35 C          27.4388   -1.9057   -1.2982 C.2       1 UNK         0.5154 
     36 O          26.9839   -0.9378   -0.6831 O.2       1 UNK        -0.5181 
     37 C          27.8157   -0.2239   -6.8070 C.2       5 UNK         0.5014 
     38 O          28.6706    0.1778   -7.5980 O.2       5 UNK        -0.5248 
     39 N          27.2149    0.5504   -5.8920 N.am      6 UNK        -0.4434 
     40 CA         27.4313    1.9883   -5.7394 C.3       6 UNK         0.0363 
     41 CB         26.7262    2.4856   -4.4679 C.3       6 UNK        -0.1936 
     42 C          26.9797    2.7879   -6.9727 C.2       6 UNK         0.5081 
     43 O          27.7305    3.6458   -7.4351 O.2       6 UNK        -0.5248 
     44 N          25.7922    2.4707   -7.5108 N.am      7 UNK        -0.4718 
     45 CA         25.2421    3.0713   -8.7319 C.3       7 UNK         0.0273 
     46 CB         23.7895    2.6108   -8.9305 C.3       7 UNK        -0.1935 
     47 C          26.0802    2.7691   -9.9854 C.2       7 UNK         0.5018 
     48 O          26.2624    3.6573  -10.8187 O.2       7 UNK        -0.5186 
     49 N          26.6015    1.5380  -10.0810 N.am      8 UNK        -0.4240 
     50 CA         27.5361    1.1093  -11.1253 C.3       8 UNK         0.0235 
     51 CB         27.5839   -0.4279  -11.1486 C.3       8 UNK        -0.2000 
     52 C          28.9583    1.6786  -10.9557 C.2       8 UNK         0.4941 
     53 O          29.7438    1.5953  -11.9008 O.2       8 UNK        -0.5273 
     54 N          29.2726    2.2081   -9.7621 N.am      9 UNK        -0.4262 
     55 CA         30.5897    2.6577   -9.2954 C.3       9 UNK         0.0264 
     56 CB         31.0644    3.8994  -10.0791 C.3       9 UNK        -0.1955 
     57 C          31.6257    1.5160   -9.2814 C.2       9 UNK         0.5031 
     58 O          32.7993    1.7388   -9.5878 O.2       9 UNK        -0.5390 
     59 N          31.1714    0.3071   -8.9185 N.am      10 UNK        -0.4204 
     60 CA         31.9459   -0.9375   -8.9536 C.3       10 UNK         0.0237 
     61 CB         31.0076   -2.1227   -8.6754 C.3       10 UNK        -0.1985 
     62 C          33.1456   -0.9579   -7.9914 C.2       10 UNK         0.4970 
     63 O          34.1155   -1.6687   -8.2573 O.2       10 UNK        -0.4914 
     64 N          33.0633   -0.1774   -6.9076 N.am      11 UNK        -0.4285 
     65 CA         34.1430    0.0148   -5.9289 C.3       11 UNK         0.1007 
     66 C          35.2234    1.0453   -6.3719 C.2       11 UNK         0.5703 
     67 N          35.0831    1.7252   -7.5056 N.am      11 UNK        -0.7361 
     68 O          36.2195    1.2245   -5.6751 O.2       11 UNK        -0.4986 
     69 C69        33.5989    0.3330   -4.5065 C.3       12 UNK        -0.0947 
     70 S70        32.2126   -0.7288   -3.9733 S.3       12 UNK        -0.2240 
     71 C71        33.0202   -2.3519   -3.8140 C.3       12 UNK         0.0194 
     72 H72        31.8808    0.9925   -0.3121 H         1 UNK         0.0906 
     73 H73        30.4197    1.9794   -0.4120 H         1 UNK         0.0906 
     74 H74        31.0151    1.1430   -1.8435 H         1 UNK         0.0906 
     75 H75        30.1567   -0.8542   -2.2619 H         1 UNK         0.3140 
     76 H76        29.1692   -2.7607   -2.1844 H         1 UNK         0.1085 
     77 H77        28.8685   -2.8333    0.8571 H         1 UNK         0.0836 
     78 H78        30.3974   -3.1553    0.0989 H         1 UNK         0.0836 
     79 H79        31.1682   -5.5129   -0.3295 H         1 UNK         0.0731 
     80 H80        30.2110   -6.7168   -1.1565 H         1 UNK         0.0731 
     81 H81        32.2650   -3.7785   -1.6044 H         1 UNK         0.1312 
     82 H82        31.4411   -3.3173   -5.7812 H         1 UNK         0.1406 
     83 H83        29.1476   -6.0871   -3.4426 H         1 UNK         0.1631 
     84 H84        29.2296   -6.1363   -6.0625 H         1 UNK         0.0717 
     85 H85        29.8223   -4.7117   -6.8813 H         1 UNK         0.0717 
     86 H86        27.8350   -2.1474   -4.7676 H         1 UNK         0.0934 
     87 H87        29.1640   -2.3769   -5.8547 H         1 UNK         0.0934 
     88 H88        27.6694   -2.0901   -7.8334 H         1 UNK         0.0739 
     89 H89        25.5438   -2.1983   -5.9245 H         1 UNK         0.3093 
     90 H90        23.0072   -0.7727   -8.0010 H         1 UNK         0.0818 
     91 H91        23.2512   -3.1512   -8.7293 H         1 UNK         0.0819 
     92 H92        23.5336   -3.6493   -7.0673 H         1 UNK         0.0819 
     93 H93        21.9720   -2.9786   -7.5402 H         1 UNK         0.0819 
     94 H94        22.9470   -1.9074   -5.3728 H         1 UNK         0.3041 
     95 H95        23.6902    1.0864   -3.5823 H         1 UNK         0.0784 
     96 H96        21.2630    1.2585   -4.1734 H         1 UNK         0.0793 
     97 H97        21.0624   -0.4651   -3.8901 H         1 UNK         0.0793 
     98 H98        21.4902    0.6104   -2.5587 H         1 UNK         0.0793 
     99 H99        22.9923   -1.4058   -2.5410 H         1 UNK         0.3024 
    100 H100       24.7521   -2.4512   -1.3023 H         1 UNK         0.1171 
    101 H101       25.1899   -4.0391   -3.9050 H         1 UNK         0.0786 
    102 H102       24.9234   -4.7447   -2.3125 H         1 UNK         0.0786 
    103 H103       23.6468   -3.8282   -3.0891 H         1 UNK         0.0786 
    104 H104       27.1303   -3.5182   -2.4866 H         1 UNK         0.2977 
    105 H105       26.5664    0.1115   -5.2397 H         1 UNK         0.3127 
    106 H106       28.5048    2.1470   -5.6159 H         1 UNK         0.0770 
    107 H107       26.9163    3.5475   -4.3070 H         1 UNK         0.0814 
    108 H108       25.6458    2.3527   -4.5269 H         1 UNK         0.0814 
    109 H109       27.0797    1.9533   -3.5844 H         1 UNK         0.0814 
    110 H110       25.2022    1.7915   -7.0348 H         1 UNK         0.2983 
    111 H111       25.2399    4.1547   -8.5943 H         1 UNK         0.0947 
    112 H112       23.3580    3.0511   -9.8304 H         1 UNK         0.0806 
    113 H113       23.1615    2.9093   -8.0910 H         1 UNK         0.0806 
    114 H114       23.7207    1.5269   -9.0302 H         1 UNK         0.0806 
    115 H115       26.3360    0.8394   -9.3916 H         1 UNK         0.3000 
    116 H116       27.1582    1.4563  -12.0894 H         1 UNK         0.0850 
    117 H117       28.2487   -0.7896  -11.9341 H         1 UNK         0.0810 
    118 H118       26.5977   -0.8524  -11.3377 H         1 UNK         0.0810 
    119 H119       27.9453   -0.8324  -10.2022 H         1 UNK         0.0810 
    120 H120       28.5473    2.2180   -9.0554 H         1 UNK         0.3040 
    121 H121       30.4544    2.9563   -8.2549 H         1 UNK         0.0766 
    122 H122       31.9752    4.3112   -9.6429 H         1 UNK         0.0812 
    123 H123       30.3123    4.6882  -10.0631 H         1 UNK         0.0812 
    124 H124       31.2824    3.6631  -11.1210 H         1 UNK         0.0812 
    125 H125       30.2045    0.2367   -8.6012 H         1 UNK         0.3205 
    126 H126       32.3427   -1.0462   -9.9651 H         1 UNK         0.0754 
    127 H127       31.5468   -3.0702   -8.7162 H         1 UNK         0.0769 
    128 H128       30.2045   -2.1745   -9.4109 H         1 UNK         0.0769 
    129 H129       30.5529   -2.0459   -7.6891 H         1 UNK         0.0769 
    130 H130       32.2282    0.3692   -6.7637 H         1 UNK         0.2981 
    131 H131       34.6860   -0.9280   -5.8548 H         1 UNK         0.0541 
    132 H132       35.7987    2.3823   -7.7721 H         1 UNK         0.3459 
    133 H133       34.2806    1.5877   -8.1088 H         1 UNK         0.3459 
    134 H134       33.2466    1.3651   -4.4624 H         1 UNK         0.0612 
    135 H135       34.3967    0.2528   -3.7659 H         1 UNK         0.0612 
    136 H136       33.6774   -2.3470   -2.9432 H         1 UNK         0.0624 
    137 H137       33.6473   -2.5524   -4.6822 H         1 UNK         0.0624 
@<TRIPOS>BOND
     1    1    2 1    
     2    1   72 1    
     3    1   73 1    
     4    1   74 1    
     5    2    3 2    
     6    2    4 am   BACKBONE|DICT|INTERRES
     7    4    5 1    
     8    4   75 1    
     9    5    6 1    
    10    5   35 1    
    11    5   76 1    
    12    6    7 1    
    13    6   77 1    
    14    6   78 1    
    15    7    8 1    
    16    8    9 1    
    17    8   79 1    
    18    8   80 1    
    19    9   10 ar   
    20    9   14 ar   
    21   10   11 ar   
    22   10   81 1    
    23   11   12 ar   
    24   11   71 1    
    25   12   13 ar   
    26   12   82 1    
    27   13   14 ar   
    28   13   15 1    
    29   14   83 1    
    30   15   16 1    
    31   15   84 1    
    32   15   85 1    
    33   16   17 1    
    34   17   18 1    
    35   17   86 1    
    36   17   87 1    
    37   18   19 1    
    38   18   37 1    
    39   18   88 1    
    40   19   20 am   BACKBONE|DICT|INTERRES
    41   19   89 1    
    42   20   21 2    
    43   20   22 1    
    44   22   23 1    
    45   22   24 1    
    46   22   90 1    
    47   23   91 1    
    48   23   92 1    
    49   23   93 1    
    50   24   25 am   BACKBONE|DICT|INTERRES
    51   24   94 1    
    52   25   26 2    
    53   25   27 1    
    54   27   28 1    
    55   27   29 1    
    56   27   95 1    
    57   28   96 1    
    58   28   97 1    
    59   28   98 1    
    60   29   30 am   BACKBONE|DICT|INTERRES
    61   29   99 1    
    62   30   31 2    
    63   30   32 1    
    64   32   33 1    
    65   32   34 1    
    66   32  100 1    
    67   33  101 1    
    68   33  102 1    
    69   33  103 1    
    70   34   35 am   BACKBONE|DICT|INTERRES
    71   34  104 1    
    72   35   36 2    
    73   37   38 2    
    74   37   39 am   BACKBONE|DICT|INTERRES
    75   39   40 1    
    76   39  105 1    
    77   40   41 1    
    78   40   42 1    
    79   40  106 1    
    80   41  107 1    
    81   41  108 1    
    82   41  109 1    
    83   42   43 2    
    84   42   44 am   BACKBONE|DICT|INTERRES
    85   44   45 1    
    86   44  110 1    
    87   45   46 1    
    88   45   47 1    
    89   45  111 1    
    90   46  112 1    
    91   46  113 1    
    92   46  114 1    
    93   47   48 2    
    94   47   49 am   BACKBONE|DICT|INTERRES
    95   49   50 1    
    96   49  115 1    
    97   50   51 1    
    98   50   52 1    
    99   50  116 1    
   100   51  117 1    
   101   51  118 1    
   102   51  119 1    
   103   52   53 2    
   104   52   54 am   BACKBONE|DICT|INTERRES
   105   54   55 1    
   106   54  120 1    
   107   55   56 1    
   108   55   57 1    
   109   55  121 1    
   110   56  122 1    
   111   56  123 1    
   112   56  124 1    
   113   57   58 2    
   114   57   59 am   BACKBONE|DICT|INTERRES
   115   59   60 1    
   116   59  125 1    
   117   60   61 1    
   118   60   62 1    
   119   60  126 1    
   120   61  127 1    
   121   61  128 1    
   122   61  129 1    
   123   62   63 2    
   124   62   64 am   BACKBONE|DICT|INTERRES
   125   64   65 1    
   126   64  130 1    
   127   65   66 1    
   128   65   69 1    
   129   65  131 1    
   130   66   67 am   BACKBONE|DICT|INTERRES
   131   66   68 2    
   132   67  132 1    
   133   67  133 1    
   134   69   70 1    
   135   69  134 1    
   136   69  135 1    
   137   70   71 1    
   138   71  136 1    
   139   71  137 1    
@<TRIPOS>SUBSTRUCTURE
     1 UNK         1 GROUP             0       ****    0 ROOT    
