@<TRIPOS>MOLECULE
3R137
137   139    1
SMALL
USER_CHARGES


@<TRIPOS>ATOM
      1 CA         30.5884    1.1495    0.2255 C.3       0 UNK        -0.2020 
      2 C          30.2564   -0.0853   -0.5990 C.2       0 UNK         0.4855 
      3 O          30.9217   -0.3456   -1.5982 O.2       0 UNK        -0.5197 
      4 N          29.2323   -0.8374   -0.1874 N.am      1 UNK        -0.4892 
      5 CA         28.6917   -2.0130   -0.8753 C.3       1 UNK         0.0835 
      6 C6         29.0880   -3.3401   -0.1759 C.3       12 UNK        -0.0855 
      7 S7         30.8928   -3.6235   -0.1511 S.3       12 UNK        -0.2931 
      8 C8         31.0961   -5.0272   -1.2920 C.3       12 UNK         0.0378 
      9 C9         30.8456   -4.6464   -2.7454 C.ar      12 UNK        -0.0802 
     10 C10        31.8263   -3.9696   -3.4778 C.ar      12 UNK        -0.0944 
     11 C11        31.6283   -3.6646   -4.8309 C.ar      12 UNK        -0.0787 
     12 C12        30.4350   -4.0544   -5.4493 C.ar      12 UNK        -0.0862 
     13 C13        29.4538   -4.7447   -4.7304 C.ar      12 UNK        -0.0733 
     14 C14        29.6587   -5.0259   -3.3769 C.ar      12 UNK        -0.0832 
     15 C15        28.1909   -5.2351   -5.4198 C.3       12 UNK         0.0240 
     16 S16        26.9288   -3.9336   -5.4934 S.3       12 UNK        -0.2522 
     17 C17        26.9587   -3.4986   -7.2661 C.3       12 UNK        -0.0967 
     18 CA         26.4149   -2.0857   -7.5943 C.3       5 UNK         0.0660 
     19 N          25.1026   -1.8154   -6.9992 N.am      5 UNK        -0.4015 
     20 C          23.9697   -1.6448   -7.6961 C.2       4 UNK         0.4946 
     21 O          23.9093   -1.6832   -8.9261 O.2       4 UNK        -0.5353 
     22 CA         22.6667   -1.4051   -6.9086 C.3       4 UNK         0.0277 
     23 CB         21.8798   -2.7189   -6.7701 C.3       4 UNK        -0.1981 
     24 N          22.8740   -0.8325   -5.5785 N.am      4 UNK        -0.4209 
     25 C          23.3076    0.4120   -5.3349 C.2       3 UNK         0.4942 
     26 O          23.5017    1.2521   -6.2135 O.2       3 UNK        -0.5208 
     27 CA         23.5937    0.7783   -3.8645 C.3       3 UNK         0.0250 
     28 CB         22.4356    1.6064   -3.2844 C.3       3 UNK        -0.1990 
     29 N          23.8635   -0.3633   -2.9754 N.am      3 UNK        -0.4232 
     30 C          24.8587   -1.2443   -3.1429 C.2       2 UNK         0.4993 
     31 O          25.5964   -1.2539   -4.1295 O.2       2 UNK        -0.5286 
     32 CA         25.0438   -2.3198   -2.0671 C.3       2 UNK         0.0209 
     33 CB         24.4172   -3.6495   -2.5170 C.3       2 UNK        -0.1931 
     34 N          26.4779   -2.5073   -1.8340 N.am      2 UNK        -0.4546 
     35 C          27.1613   -1.8415   -0.8953 C.2       1 UNK         0.5154 
     36 O          26.6211   -1.1177   -0.0512 O.2       1 UNK        -0.5181 
     37 C          27.4236   -0.9766   -7.2595 C.2       5 UNK         0.5014 
     38 O          28.1570   -0.5607   -8.1584 O.2       5 UNK        -0.5248 
     39 N          27.4303   -0.4696   -6.0183 N.am      6 UNK        -0.4434 
     40 CA         28.2929    0.6179   -5.5450 C.3       6 UNK         0.0363 
     41 CB         28.3929    0.5550   -4.0109 C.3       6 UNK        -0.1936 
     42 C          27.8212    1.9922   -6.0608 C.2       6 UNK         0.5081 
     43 O          27.4697    2.8751   -5.2772 O.2       6 UNK        -0.5248 
     44 N          27.8243    2.1223   -7.3885 N.am      7 UNK        -0.4718 
     45 CA         27.4372    3.2744   -8.1982 C.3       7 UNK         0.0273 
     46 CB         25.9469    3.6251   -8.0108 C.3       7 UNK        -0.1935 
     47 C          27.7343    2.9648   -9.6719 C.2       7 UNK         0.5018 
     48 O          28.2624    3.8240  -10.3779 O.2       7 UNK        -0.5186 
     49 N          27.3993    1.7385  -10.1021 N.am      8 UNK        -0.4240 
     50 CA         27.6937    1.2096  -11.4346 C.3       8 UNK         0.0235 
     51 CB         26.6970    0.0864  -11.7672 C.3       8 UNK        -0.2000 
     52 C          29.1402    0.6995  -11.5408 C.2       8 UNK         0.4941 
     53 O          29.8028    0.9611  -12.5460 O.2       8 UNK        -0.5273 
     54 N          29.5999   -0.0172  -10.5068 N.am      9 UNK        -0.4262 
     55 CA         30.9740   -0.4906  -10.3541 C.3       9 UNK         0.0264 
     56 CB         30.9665   -1.7262   -9.4336 C.3       9 UNK        -0.1955 
     57 C          31.8680    0.6116   -9.7644 C.2       9 UNK         0.5031 
     58 O          31.3659    1.6236   -9.2667 O.2       9 UNK        -0.5390 
     59 N          33.1850    0.3593   -9.7650 N.am      10 UNK        -0.4204 
     60 CA         34.2273    1.2326   -9.2046 C.3       10 UNK         0.0237 
     61 CB         35.6047    0.5983   -9.4600 C.3       10 UNK        -0.1985 
     62 C          34.0608    1.5679   -7.7078 C.2       10 UNK         0.4970 
     63 O          34.6052    2.5761   -7.2561 O.2       10 UNK        -0.4914 
     64 N          33.3014    0.7400   -6.9789 N.am      11 UNK        -0.4285 
     65 CA         32.8443    0.9993   -5.6067 C.3       11 UNK         0.1007 
     66 C          31.8314    2.1762   -5.4765 C.2       11 UNK         0.5703 
     67 N          31.2132    2.6560   -6.5505 N.am      11 UNK        -0.7361 
     68 O          31.6130    2.6741   -4.3756 O.2       11 UNK        -0.4986 
     69 C69        32.2860   -0.2854   -4.9416 C.3       12 UNK        -0.0947 
     70 S70        33.5427   -1.5995   -4.8134 S.3       12 UNK        -0.2240 
     71 C71        32.7245   -2.9937   -5.6573 C.3       12 UNK         0.0194 
     72 H72        31.6059    1.0803    0.6093 H         1 UNK         0.0906 
     73 H73        30.5181    2.0431   -0.3944 H         1 UNK         0.0906 
     74 H74        29.9134    1.2695    1.0727 H         1 UNK         0.0906 
     75 H75        28.6619   -0.5331    0.5918 H         1 UNK         0.3140 
     76 H76        29.0417   -2.0371   -1.9101 H         1 UNK         0.1085 
     77 H77        28.6002   -4.1889   -0.6579 H         1 UNK         0.0836 
     78 H78        28.7372   -3.3433    0.8580 H         1 UNK         0.0836 
     79 H79        32.1138   -5.4080   -1.1947 H         1 UNK         0.0731 
     80 H80        30.4411   -5.8437   -0.9837 H         1 UNK         0.0731 
     81 H81        32.7532   -3.6944   -2.9935 H         1 UNK         0.1312 
     82 H82        30.2789   -3.8466   -6.4989 H         1 UNK         0.1406 
     83 H83        28.9052   -5.5695   -2.8231 H         1 UNK         0.1631 
     84 H84        27.7750   -6.0874   -4.8804 H         1 UNK         0.0717 
     85 H85        28.4258   -5.6041   -6.4192 H         1 UNK         0.0717 
     86 H86        27.9719   -3.6126   -7.6569 H         1 UNK         0.0934 
     87 H87        26.3578   -4.2419   -7.7924 H         1 UNK         0.0934 
     88 H88        26.3233   -2.0500   -8.6820 H         1 UNK         0.0739 
     89 H89        25.0802   -1.7493   -5.9865 H         1 UNK         0.3093 
     90 H90        22.0619   -0.7025   -7.4861 H         1 UNK         0.0818 
     91 H91        20.9159   -2.5566   -6.2875 H         1 UNK         0.0819 
     92 H92        21.6794   -3.1583   -7.7484 H         1 UNK         0.0819 
     93 H93        22.4289   -3.4597   -6.1872 H         1 UNK         0.0819 
     94 H94        22.7310   -1.4463   -4.7903 H         1 UNK         0.3041 
     95 H95        24.4907    1.4019   -3.8674 H         1 UNK         0.0784 
     96 H96        22.2289    2.4789   -3.9061 H         1 UNK         0.0793 
     97 H97        21.5148    1.0249   -3.2228 H         1 UNK         0.0793 
     98 H98        22.6703    1.9738   -2.2851 H         1 UNK         0.0793 
     99 H99        23.2841   -0.4334   -2.1506 H         1 UNK         0.3024 
    100 H100       24.5477   -2.0010   -1.1472 H         1 UNK         0.1171 
    101 H101       23.3413   -3.5449   -2.6624 H         1 UNK         0.0786 
    102 H102       24.5676   -4.4294   -1.7704 H         1 UNK         0.0786 
    103 H103       24.8383   -4.0036   -3.4577 H         1 UNK         0.0786 
    104 H104       26.9759   -3.0322   -2.5397 H         1 UNK         0.2977 
    105 H105       26.7744   -0.8391   -5.3289 H         1 UNK         0.3127 
    106 H106       29.2951    0.4535   -5.9445 H         1 UNK         0.0770 
    107 H107       27.4253    0.7134   -3.5339 H         1 UNK         0.0814 
    108 H108       29.0745    1.3183   -3.6329 H         1 UNK         0.0814 
    109 H109       28.7783   -0.4098   -3.6829 H         1 UNK         0.0814 
    110 H110       28.1632    1.3164   -7.9073 H         1 UNK         0.2983 
    111 H111       28.0491    4.1273   -7.8980 H         1 UNK         0.0947 
    112 H112       25.6458    4.4258   -8.6875 H         1 UNK         0.0806 
    113 H113       25.7388    3.9696   -6.9981 H         1 UNK         0.0806 
    114 H114       25.3010    2.7683   -8.2076 H         1 UNK         0.0806 
    115 H115       26.9552    1.1038   -9.4544 H         1 UNK         0.3000 
    116 H116       27.5639    2.0084  -12.1684 H         1 UNK         0.0850 
    117 H117       26.8873   -0.3214  -12.7609 H         1 UNK         0.0810 
    118 H118       25.6702    0.4527  -11.7596 H         1 UNK         0.0810 
    119 H119       26.7624   -0.7396  -11.0575 H         1 UNK         0.0810 
    120 H120       28.9969   -0.1641   -9.7002 H         1 UNK         0.3040 
    121 H121       31.3668   -0.7767  -11.3321 H         1 UNK         0.0766 
    122 H122       30.6673   -1.4715   -8.4158 H         1 UNK         0.0812 
    123 H123       30.2779   -2.4880   -9.7998 H         1 UNK         0.0812 
    124 H124       31.9527   -2.1879   -9.3775 H         1 UNK         0.0812 
    125 H125       33.5070   -0.4997  -10.1883 H         1 UNK         0.3205 
    126 H126       34.1800    2.1790   -9.7473 H         1 UNK         0.0754 
    127 H127       36.4055    1.2372   -9.0846 H         1 UNK         0.0769 
    128 H128       35.7848    0.4520  -10.5253 H         1 UNK         0.0769 
    129 H129       35.7014   -0.3691   -8.9651 H         1 UNK         0.0769 
    130 H130       32.9069   -0.0689   -7.4308 H         1 UNK         0.2981 
    131 H131       33.7218    1.3066   -5.0345 H         1 UNK         0.0541 
    132 H132       30.5818    3.4317   -6.4393 H         1 UNK         0.3459 
    133 H133       31.3733    2.2665   -7.4760 H         1 UNK         0.3459 
    134 H134       31.4152   -0.6548   -5.4854 H         1 UNK         0.0612 
    135 H135       31.9424   -0.0713   -3.9301 H         1 UNK         0.0612 
    136 H136       33.4815   -3.7439   -5.8884 H         1 UNK         0.0624 
    137 H137       32.3351   -2.6466   -6.6155 H         1 UNK         0.0624 
@<TRIPOS>BOND
     1    1    2 1    
     2    1   72 1    
     3    1   73 1    
     4    1   74 1    
     5    2    3 2    
     6    2    4 am   BACKBONE|DICT|INTERRES
     7    4    5 1    
     8    4   75 1    
     9    5    6 1    
    10    5   35 1    
    11    5   76 1    
    12    6    7 1    
    13    6   77 1    
    14    6   78 1    
    15    7    8 1    
    16    8    9 1    
    17    8   79 1    
    18    8   80 1    
    19    9   10 ar   
    20    9   14 ar   
    21   10   11 ar   
    22   10   81 1    
    23   11   12 ar   
    24   11   71 1    
    25   12   13 ar   
    26   12   82 1    
    27   13   14 ar   
    28   13   15 1    
    29   14   83 1    
    30   15   16 1    
    31   15   84 1    
    32   15   85 1    
    33   16   17 1    
    34   17   18 1    
    35   17   86 1    
    36   17   87 1    
    37   18   19 1    
    38   18   37 1    
    39   18   88 1    
    40   19   20 am   BACKBONE|DICT|INTERRES
    41   19   89 1    
    42   20   21 2    
    43   20   22 1    
    44   22   23 1    
    45   22   24 1    
    46   22   90 1    
    47   23   91 1    
    48   23   92 1    
    49   23   93 1    
    50   24   25 am   BACKBONE|DICT|INTERRES
    51   24   94 1    
    52   25   26 2    
    53   25   27 1    
    54   27   28 1    
    55   27   29 1    
    56   27   95 1    
    57   28   96 1    
    58   28   97 1    
    59   28   98 1    
    60   29   30 am   BACKBONE|DICT|INTERRES
    61   29   99 1    
    62   30   31 2    
    63   30   32 1    
    64   32   33 1    
    65   32   34 1    
    66   32  100 1    
    67   33  101 1    
    68   33  102 1    
    69   33  103 1    
    70   34   35 am   BACKBONE|DICT|INTERRES
    71   34  104 1    
    72   35   36 2    
    73   37   38 2    
    74   37   39 am   BACKBONE|DICT|INTERRES
    75   39   40 1    
    76   39  105 1    
    77   40   41 1    
    78   40   42 1    
    79   40  106 1    
    80   41  107 1    
    81   41  108 1    
    82   41  109 1    
    83   42   43 2    
    84   42   44 am   BACKBONE|DICT|INTERRES
    85   44   45 1    
    86   44  110 1    
    87   45   46 1    
    88   45   47 1    
    89   45  111 1    
    90   46  112 1    
    91   46  113 1    
    92   46  114 1    
    93   47   48 2    
    94   47   49 am   BACKBONE|DICT|INTERRES
    95   49   50 1    
    96   49  115 1    
    97   50   51 1    
    98   50   52 1    
    99   50  116 1    
   100   51  117 1    
   101   51  118 1    
   102   51  119 1    
   103   52   53 2    
   104   52   54 am   BACKBONE|DICT|INTERRES
   105   54   55 1    
   106   54  120 1    
   107   55   56 1    
   108   55   57 1    
   109   55  121 1    
   110   56  122 1    
   111   56  123 1    
   112   56  124 1    
   113   57   58 2    
   114   57   59 am   BACKBONE|DICT|INTERRES
   115   59   60 1    
   116   59  125 1    
   117   60   61 1    
   118   60   62 1    
   119   60  126 1    
   120   61  127 1    
   121   61  128 1    
   122   61  129 1    
   123   62   63 2    
   124   62   64 am   BACKBONE|DICT|INTERRES
   125   64   65 1    
   126   64  130 1    
   127   65   66 1    
   128   65   69 1    
   129   65  131 1    
   130   66   67 am   BACKBONE|DICT|INTERRES
   131   66   68 2    
   132   67  132 1    
   133   67  133 1    
   134   69   70 1    
   135   69  134 1    
   136   69  135 1    
   137   70   71 1    
   138   71  136 1    
   139   71  137 1    
@<TRIPOS>SUBSTRUCTURE
     1 UNK         1 GROUP             0       ****    0 ROOT    
