@<TRIPOS>MOLECULE
3R137
137   139    1
SMALL
USER_CHARGES


@<TRIPOS>ATOM
      1 CA         23.1779    0.0355   -6.6904 C.3       0 UNK        -0.2020 
      2 C          23.0408   -1.3485   -6.0722 C.2       0 UNK         0.4855 
      3 O          22.0247   -2.0143   -6.2753 O.2       0 UNK        -0.5197 
      4 N          24.0608   -1.7801   -5.3261 N.am      1 UNK        -0.4892 
      5 CA         24.1056   -3.0509   -4.5968 C.3       1 UNK         0.0835 
      6 C6         25.5255   -3.6701   -4.6698 C.3       12 UNK        -0.0855 
      7 S7         25.9343   -4.1986   -6.3652 S.3       12 UNK        -0.2931 
      8 C8         27.3658   -5.2798   -6.0711 C.3       12 UNK         0.0378 
      9 C9         28.5890   -4.4868   -5.6371 C.ar      12 UNK        -0.0802 
     10 C10        29.3919   -3.8584   -6.5928 C.ar      12 UNK        -0.0944 
     11 C11        30.5374   -3.1491   -6.2172 C.ar      12 UNK        -0.0787 
     12 C12        30.8641   -3.0669   -4.8560 C.ar      12 UNK        -0.0862 
     13 C13        30.0603   -3.6801   -3.8878 C.ar      12 UNK        -0.0733 
     14 C14        28.9273   -4.3934   -4.2852 C.ar      12 UNK        -0.0832 
     15 C15        30.4127   -3.5765   -2.4095 C.3       12 UNK         0.0240 
     16 S16        29.3888   -2.3374   -1.5487 S.3       12 UNK        -0.2522 
     17 C17        29.9000   -0.8091   -2.3989 C.3       12 UNK        -0.0967 
     18 CA         28.8419   -0.3588   -3.4392 C.3       5 UNK         0.0660 
     19 N          27.6460    0.1798   -2.7853 N.am      5 UNK        -0.4015 
     20 C          26.4454    0.3494   -3.3492 C.2       4 UNK         0.4946 
     21 O          26.1686   -0.0193   -4.4957 O.2       4 UNK        -0.5353 
     22 CA         25.3964    1.0600   -2.4813 C.3       4 UNK         0.0277 
     23 CB         24.1627    1.5099   -3.2861 C.3       4 UNK        -0.1981 
     24 N          24.9784    0.2012   -1.3725 N.am      4 UNK        -0.4209 
     25 C          25.6215    0.1035   -0.1990 C.2       3 UNK         0.4942 
     26 O          26.6571    0.7233    0.0506 O.2       3 UNK        -0.5208 
     27 CA         25.0254   -0.8152    0.8854 C.3       3 UNK         0.0250 
     28 CB         24.2530    0.0172    1.9222 C.3       3 UNK        -0.1990 
     29 N          24.1384   -1.8489    0.3481 N.am      3 UNK        -0.4232 
     30 C          24.5596   -2.9882   -0.2157 C.2       2 UNK         0.4993 
     31 O          25.7420   -3.3276   -0.2720 O.2       2 UNK        -0.5286 
     32 CA         23.4975   -3.8936   -0.8723 C.3       2 UNK         0.0209 
     33 CB         22.0376   -3.5570   -0.4865 C.3       2 UNK        -0.1931 
     34 N          23.6696   -3.9041   -2.3317 N.am      2 UNK        -0.4546 
     35 C          23.6601   -2.8290   -3.1358 C.2       1 UNK         0.5154 
     36 O          23.3411   -1.7027   -2.7446 O.2       1 UNK        -0.5181 
     37 C          29.4140    0.6527   -4.4554 C.2       5 UNK         0.5014 
     38 O          30.5109    1.1760   -4.2594 O.2       5 UNK        -0.5248 
     39 N          28.6435    0.9270   -5.5122 N.am      6 UNK        -0.4434 
     40 CA         28.9866    1.8429   -6.5999 C.3       6 UNK         0.0363 
     41 CB         28.6003    3.2815   -6.2069 C.3       6 UNK        -0.1936 
     42 C          28.3414    1.4268   -7.9323 C.2       6 UNK         0.5081 
     43 O          28.4410    2.1792   -8.9006 O.2       6 UNK        -0.5248 
     44 N          27.7011    0.2473   -7.9878 N.am      7 UNK        -0.4718 
     45 CA         26.9388   -0.2410   -9.1463 C.3       7 UNK         0.0273 
     46 CB         26.2374   -1.5535   -8.7691 C.3       7 UNK        -0.1935 
     47 C          27.7729   -0.4341  -10.4261 C.2       7 UNK         0.5018 
     48 O          27.2444   -0.2622  -11.5247 O.2       7 UNK        -0.5186 
     49 N          29.0594   -0.7643  -10.2566 N.am      8 UNK        -0.4240 
     50 CA         30.0398   -0.9057  -11.3363 C.3       8 UNK         0.0235 
     51 CB         31.0001   -2.0565  -10.9848 C.3       8 UNK        -0.2000 
     52 C          30.8299    0.3909  -11.5987 C.2       8 UNK         0.4941 
     53 O          31.7748    0.3549  -12.3884 O.2       8 UNK        -0.5273 
     54 N          30.4935    1.4917  -10.9051 N.am      9 UNK        -0.4262 
     55 CA         31.1532    2.8072  -10.8784 C.3       9 UNK         0.0264 
     56 CB         31.1623    3.4752  -12.2672 C.3       9 UNK        -0.1955 
     57 C          32.5603    2.7955  -10.2532 C.2       9 UNK         0.5031 
     58 O          32.8457    3.6344   -9.3978 O.2       9 UNK        -0.5390 
     59 N          33.3997    1.8332  -10.6571 N.am      10 UNK        -0.4204 
     60 CA         34.7827    1.6311  -10.2118 C.3       10 UNK         0.0237 
     61 CB         35.3925    0.4570  -10.9948 C.3       10 UNK        -0.1985 
     62 C          34.9445    1.4054   -8.6972 C.2       10 UNK         0.4970 
     63 O          36.0015    1.7313   -8.1553 O.2       10 UNK        -0.4914 
     64 N          33.9040    0.8717   -8.0440 N.am      11 UNK        -0.4285 
     65 CA         33.8271    0.7235   -6.5824 C.3       11 UNK         0.1007 
     66 C          33.6421    2.0662   -5.8129 C.2       11 UNK         0.5703 
     67 N          33.2884    3.1718   -6.4614 N.am      11 UNK        -0.7361 
     68 O          33.8548    2.1100   -4.6038 O.2       11 UNK        -0.4986 
     69 C69        32.7564   -0.3157   -6.1571 C.3       12 UNK        -0.0947 
     70 S70        33.0599   -1.9711   -6.8625 S.3       12 UNK        -0.2240 
     71 C71        31.3747   -2.5037   -7.3251 C.3       12 UNK         0.0194 
     72 H72        24.1429    0.4886   -6.4621 H         1 UNK         0.0906 
     73 H73        23.0817   -0.0256   -7.7741 H         1 UNK         0.0906 
     74 H74        22.3963    0.6943   -6.3132 H         1 UNK         0.0906 
     75 H75        24.8377   -1.1511   -5.1303 H         1 UNK         0.3140 
     76 H76        23.3962   -3.7551   -5.0372 H         1 UNK         0.1085 
     77 H77        25.6144   -4.5450   -4.0243 H         1 UNK         0.0836 
     78 H78        26.2781   -2.9566   -4.3267 H         1 UNK         0.0836 
     79 H79        27.5910   -5.8216   -6.9909 H         1 UNK         0.0731 
     80 H80        27.1101   -6.0379   -5.3291 H         1 UNK         0.0731 
     81 H81        29.1250   -3.9315   -7.6385 H         1 UNK         0.1312 
     82 H82        31.7424   -2.5267   -4.5365 H         1 UNK         0.1406 
     83 H83        28.3070   -4.8704   -3.5383 H         1 UNK         0.1631 
     84 H84        31.4677   -3.3305   -2.2788 H         1 UNK         0.0717 
     85 H85        30.2668   -4.5464   -1.9316 H         1 UNK         0.0717 
     86 H86        30.0677   -0.0283   -1.6548 H         1 UNK         0.0934 
     87 H87        30.8720   -0.9802   -2.8643 H         1 UNK         0.0934 
     88 H88        28.5428   -1.2345   -4.0197 H         1 UNK         0.0739 
     89 H89        27.7568    0.4777   -1.8231 H         1 UNK         0.3093 
     90 H90        25.8625    1.9637   -2.0821 H         1 UNK         0.0818 
     91 H91        24.4527    2.1621   -4.1109 H         1 UNK         0.0819 
     92 H92        23.6217    0.6679   -3.7150 H         1 UNK         0.0819 
     93 H93        23.4660    2.0684   -2.6612 H         1 UNK         0.0819 
     94 H94        24.2003   -0.4227   -1.5704 H         1 UNK         0.3041 
     95 H95        25.8606   -1.3001    1.3959 H         1 UNK         0.0784 
     96 H96        24.8945    0.7795    2.3668 H         1 UNK         0.0793 
     97 H97        23.3998    0.5296    1.4757 H         1 UNK         0.0793 
     98 H98        23.8830   -0.6067    2.7361 H         1 UNK         0.0793 
     99 H99        23.1503   -1.6405    0.3282 H         1 UNK         0.3024 
    100 H100       23.7058   -4.9056   -0.5201 H         1 UNK         0.1171 
    101 H101       21.3476   -4.2851   -0.9129 H         1 UNK         0.0786 
    102 H102       21.9002   -3.5868    0.5953 H         1 UNK         0.0786 
    103 H103       21.7248   -2.5722   -0.8345 H         1 UNK         0.0786 
    104 H104       23.9429   -4.7939   -2.7253 H         1 UNK         0.2977 
    105 H105       27.7020    0.5408   -5.5098 H         1 UNK         0.3127 
    106 H106       30.0657    1.8110   -6.7649 H         1 UNK         0.0770 
    107 H107       27.5275    3.3751   -6.0344 H         1 UNK         0.0814 
    108 H108       28.8707    3.9911   -6.9900 H         1 UNK         0.0814 
    109 H109       29.1154    3.5966   -5.2993 H         1 UNK         0.0814 
    110 H110       27.6936   -0.3430   -7.1696 H         1 UNK         0.2983 
    111 H111       26.1725    0.5044   -9.3706 H         1 UNK         0.0947 
    112 H112       25.6106   -1.9126   -9.5865 H         1 UNK         0.0806 
    113 H113       25.5920   -1.4269   -7.9005 H         1 UNK         0.0806 
    114 H114       26.9559   -2.3415   -8.5400 H         1 UNK         0.0806 
    115 H115       29.3951   -0.8799   -9.3126 H         1 UNK         0.3000 
    116 H116       29.5269   -1.1653  -12.2650 H         1 UNK         0.0850 
    117 H117       31.6473   -2.2945  -11.8302 H         1 UNK         0.0810 
    118 H118       30.4586   -2.9678  -10.7302 H         1 UNK         0.0810 
    119 H119       31.6496   -1.8005  -10.1476 H         1 UNK         0.0810 
    120 H120       29.6919    1.4314  -10.2843 H         1 UNK         0.3040 
    121 H121       30.5335    3.4272  -10.2283 H         1 UNK         0.0766 
    122 H122       30.1553    3.5444  -12.6786 H         1 UNK         0.0812 
    123 H123       31.7800    2.9323  -12.9830 H         1 UNK         0.0812 
    124 H124       31.5574    4.4900  -12.2059 H         1 UNK         0.0812 
    125 H125       33.0441    1.1973  -11.3699 H         1 UNK         0.3205 
    126 H126       35.3379    2.5371  -10.4626 H         1 UNK         0.0754 
    127 H127       36.4327    0.2929  -10.7091 H         1 UNK         0.0769 
    128 H128       35.3791    0.6462  -12.0684 H         1 UNK         0.0769 
    129 H129       34.8522   -0.4729  -10.8115 H         1 UNK         0.0769 
    130 H130       33.0792    0.6230   -8.5660 H         1 UNK         0.2981 
    131 H131       34.7923    0.3336   -6.2530 H         1 UNK         0.0541 
    132 H132       33.1500    3.1787   -7.4659 H         1 UNK         0.3459 
    133 H133       33.1856    4.0274   -5.9404 H         1 UNK         0.3459 
    134 H134       31.7645    0.0304   -6.4487 H         1 UNK         0.0612 
    135 H135       32.7367   -0.4191   -5.0708 H         1 UNK         0.0612 
    136 H136       31.4840   -3.2283   -8.1333 H         1 UNK         0.0624 
    137 H137       30.8257   -1.6597   -7.7426 H         1 UNK         0.0624 
@<TRIPOS>BOND
     1    1    2 1    
     2    1   72 1    
     3    1   73 1    
     4    1   74 1    
     5    2    3 2    
     6    2    4 am   BACKBONE|DICT|INTERRES
     7    4    5 1    
     8    4   75 1    
     9    5    6 1    
    10    5   35 1    
    11    5   76 1    
    12    6    7 1    
    13    6   77 1    
    14    6   78 1    
    15    7    8 1    
    16    8    9 1    
    17    8   79 1    
    18    8   80 1    
    19    9   10 ar   
    20    9   14 ar   
    21   10   11 ar   
    22   10   81 1    
    23   11   12 ar   
    24   11   71 1    
    25   12   13 ar   
    26   12   82 1    
    27   13   14 ar   
    28   13   15 1    
    29   14   83 1    
    30   15   16 1    
    31   15   84 1    
    32   15   85 1    
    33   16   17 1    
    34   17   18 1    
    35   17   86 1    
    36   17   87 1    
    37   18   19 1    
    38   18   37 1    
    39   18   88 1    
    40   19   20 am   BACKBONE|DICT|INTERRES
    41   19   89 1    
    42   20   21 2    
    43   20   22 1    
    44   22   23 1    
    45   22   24 1    
    46   22   90 1    
    47   23   91 1    
    48   23   92 1    
    49   23   93 1    
    50   24   25 am   BACKBONE|DICT|INTERRES
    51   24   94 1    
    52   25   26 2    
    53   25   27 1    
    54   27   28 1    
    55   27   29 1    
    56   27   95 1    
    57   28   96 1    
    58   28   97 1    
    59   28   98 1    
    60   29   30 am   BACKBONE|DICT|INTERRES
    61   29   99 1    
    62   30   31 2    
    63   30   32 1    
    64   32   33 1    
    65   32   34 1    
    66   32  100 1    
    67   33  101 1    
    68   33  102 1    
    69   33  103 1    
    70   34   35 am   BACKBONE|DICT|INTERRES
    71   34  104 1    
    72   35   36 2    
    73   37   38 2    
    74   37   39 am   BACKBONE|DICT|INTERRES
    75   39   40 1    
    76   39  105 1    
    77   40   41 1    
    78   40   42 1    
    79   40  106 1    
    80   41  107 1    
    81   41  108 1    
    82   41  109 1    
    83   42   43 2    
    84   42   44 am   BACKBONE|DICT|INTERRES
    85   44   45 1    
    86   44  110 1    
    87   45   46 1    
    88   45   47 1    
    89   45  111 1    
    90   46  112 1    
    91   46  113 1    
    92   46  114 1    
    93   47   48 2    
    94   47   49 am   BACKBONE|DICT|INTERRES
    95   49   50 1    
    96   49  115 1    
    97   50   51 1    
    98   50   52 1    
    99   50  116 1    
   100   51  117 1    
   101   51  118 1    
   102   51  119 1    
   103   52   53 2    
   104   52   54 am   BACKBONE|DICT|INTERRES
   105   54   55 1    
   106   54  120 1    
   107   55   56 1    
   108   55   57 1    
   109   55  121 1    
   110   56  122 1    
   111   56  123 1    
   112   56  124 1    
   113   57   58 2    
   114   57   59 am   BACKBONE|DICT|INTERRES
   115   59   60 1    
   116   59  125 1    
   117   60   61 1    
   118   60   62 1    
   119   60  126 1    
   120   61  127 1    
   121   61  128 1    
   122   61  129 1    
   123   62   63 2    
   124   62   64 am   BACKBONE|DICT|INTERRES
   125   64   65 1    
   126   64  130 1    
   127   65   66 1    
   128   65   69 1    
   129   65  131 1    
   130   66   67 am   BACKBONE|DICT|INTERRES
   131   66   68 2    
   132   67  132 1    
   133   67  133 1    
   134   69   70 1    
   135   69  134 1    
   136   69  135 1    
   137   70   71 1    
   138   71  136 1    
   139   71  137 1    
@<TRIPOS>SUBSTRUCTURE
     1 UNK         1 GROUP             0       ****    0 ROOT    
