@<TRIPOS>MOLECULE
3R137
137   139    1
SMALL
USER_CHARGES


@<TRIPOS>ATOM
      1 CA         24.4859   -4.7314   -7.9594 C.3       0 UNK        -0.2020 
      2 C          24.8601   -5.0424   -6.5180 C.2       0 UNK         0.4855 
      3 O          24.0056   -5.4766   -5.7453 O.2       0 UNK        -0.5197 
      4 N          26.1329   -4.8395   -6.1542 N.am      1 UNK        -0.4892 
      5 CA         26.6424   -5.0223   -4.7922 C.3       1 UNK         0.0835 
      6 C6         28.1857   -5.1505   -4.7878 C.3       12 UNK        -0.0855 
      7 S7         28.8195   -5.7666   -3.1899 S.3       12 UNK        -0.2931 
      8 C8         30.5413   -5.1694   -3.2071 C.3       12 UNK         0.0378 
      9 C9         30.6839   -3.6494   -3.2558 C.ar      12 UNK        -0.0802 
     10 C10        31.6108   -3.0801   -4.1342 C.ar      12 UNK        -0.0944 
     11 C11        31.8195   -1.6991   -4.1566 C.ar      12 UNK        -0.0787 
     12 C12        31.0836   -0.8786   -3.2981 C.ar      12 UNK        -0.0862 
     13 C13        30.1447   -1.4293   -2.4189 C.ar      12 UNK        -0.0733 
     14 C14        29.9503   -2.8158   -2.4011 C.ar      12 UNK        -0.0832 
     15 C15        29.3814   -0.5301   -1.4531 C.3       12 UNK         0.0240 
     16 S16        27.7291   -0.0691   -2.0687 S.3       12 UNK        -0.2522 
     17 C17        28.1298    0.9753   -3.5122 C.3       12 UNK        -0.0967 
     18 CA         27.8464    0.2164   -4.8364 C.3       5 UNK         0.0660 
     19 N          26.4197   -0.0694   -5.0146 N.am      5 UNK        -0.4015 
     20 C          25.4566    0.7864   -5.3889 C.2       4 UNK         0.4946 
     21 O          25.6531    1.9650   -5.6898 O.2       4 UNK        -0.5353 
     22 CA         24.0228    0.2370   -5.3963 C.3       4 UNK         0.0277 
     23 CB         23.8521   -0.8900   -6.4303 C.3       4 UNK        -0.1981 
     24 N          23.6476   -0.2345   -4.0631 N.am      4 UNK        -0.4209 
     25 C          23.3879    0.5656   -3.0192 C.2       3 UNK         0.4942 
     26 O          23.2842    1.7894   -3.1092 O.2       3 UNK        -0.5208 
     27 CA         23.2493   -0.0838   -1.6290 C.3       3 UNK         0.0250 
     28 CB         21.7926   -0.4979   -1.3388 C.3       3 UNK        -0.1990 
     29 N          24.2025   -1.1768   -1.3819 N.am      3 UNK        -0.4232 
     30 C          24.2341   -2.3962   -1.9353 C.2       2 UNK         0.4993 
     31 O          23.3776   -2.8242   -2.7124 O.2       2 UNK        -0.5286 
     32 CA         25.4444   -3.2705   -1.5646 C.3       2 UNK         0.0209 
     33 CB         25.1603   -4.0657   -0.2801 C.3       2 UNK        -0.1931 
     34 N          25.8376   -4.2036   -2.6243 N.am      2 UNK        -0.4546 
     35 C          26.1696   -3.8713   -3.8803 C.2       1 UNK         0.5154 
     36 O          26.1588   -2.7182   -4.3177 O.2       1 UNK        -0.5181 
     37 C          28.4277    0.8780   -6.1010 C.2       5 UNK         0.5014 
     38 O          28.4778    0.2200   -7.1408 O.2       5 UNK        -0.5248 
     39 N          28.7837    2.1691   -6.0260 N.am      6 UNK        -0.4434 
     40 CA         29.2960    2.9707   -7.1416 C.3       6 UNK         0.0363 
     41 CB         29.6783    4.3685   -6.6314 C.3       6 UNK        -0.1936 
     42 C          28.3526    3.0745   -8.3561 C.2       6 UNK         0.5081 
     43 O          28.8391    3.3039   -9.4633 O.2       6 UNK        -0.5248 
     44 N          27.0398    2.8816   -8.1519 N.am      7 UNK        -0.4718 
     45 CA         26.0514    2.7969   -9.2316 C.3       7 UNK         0.0273 
     46 CB         24.6379    2.9903   -8.6593 C.3       7 UNK        -0.1935 
     47 C          26.1361    1.4769  -10.0210 C.2       7 UNK         0.5018 
     48 O          25.7077    1.4494  -11.1754 O.2       7 UNK        -0.5186 
     49 N          26.6806    0.4183   -9.4026 N.am      8 UNK        -0.4240 
     50 CA         26.9778   -0.8552  -10.0555 C.3       8 UNK         0.0235 
     51 CB         26.8078   -2.0153   -9.0590 C.3       8 UNK        -0.2000 
     52 C          28.3934   -0.8163  -10.6470 C.2       8 UNK         0.4941 
     53 O          28.5480   -1.0270  -11.8504 O.2       8 UNK        -0.5273 
     54 N          29.3899   -0.5139   -9.8049 N.am      9 UNK        -0.4262 
     55 CA         30.7912   -0.3344  -10.1767 C.3       9 UNK         0.0264 
     56 CB         31.4464   -1.6808  -10.5399 C.3       9 UNK        -0.1955 
     57 C          31.5236    0.3146   -9.0002 C.2       9 UNK         0.5031 
     58 O          31.3953   -0.1673   -7.8748 O.2       9 UNK        -0.5390 
     59 N          32.2869    1.3801   -9.2697 N.am      10 UNK        -0.4204 
     60 CA         33.1179    2.0642   -8.2754 C.3       10 UNK         0.0237 
     61 CB         33.5535    3.4284   -8.8344 C.3       10 UNK        -0.1985 
     62 C          34.3401    1.2188   -7.8799 C.2       10 UNK         0.4970 
     63 O          34.8519    0.4573   -8.7046 O.2       10 UNK        -0.4914 
     64 N          34.7990    1.3948   -6.6386 N.am      11 UNK        -0.4285 
     65 CA         35.9550    0.7031   -6.0601 C.3       11 UNK         0.1007 
     66 C          36.6195    1.5485   -4.9401 C.2       11 UNK         0.5703 
     67 N          37.7743    1.1266   -4.4442 N.am      11 UNK        -0.7361 
     68 O          36.1043    2.5842   -4.5191 O.2       11 UNK        -0.4986 
     69 C69        35.6211   -0.7585   -5.6420 C.3       12 UNK        -0.0947 
     70 S70        34.4586   -0.9180   -4.2403 S.3       12 UNK        -0.2240 
     71 C71        32.8614   -1.1032   -5.0904 C.3       12 UNK         0.0194 
     72 H72        25.3650   -4.6444   -8.5967 H         1 UNK         0.0906 
     73 H73        23.8585   -5.5248   -8.3649 H         1 UNK         0.0906 
     74 H74        23.9274   -3.7971   -8.0097 H         1 UNK         0.0906 
     75 H75        26.7856   -4.4492   -6.8181 H         1 UNK         0.3140 
     76 H76        26.2228   -5.9571   -4.4126 H         1 UNK         0.1085 
     77 H77        28.5056   -5.8547   -5.5575 H         1 UNK         0.0836 
     78 H78        28.6522   -4.1953   -5.0379 H         1 UNK         0.0836 
     79 H79        31.0431   -5.5331   -2.3096 H         1 UNK         0.0731 
     80 H80        31.0536   -5.6325   -4.0520 H         1 UNK         0.0731 
     81 H81        32.1937   -3.7148   -4.7879 H         1 UNK         0.1312 
     82 H82        31.2610    0.1878   -3.3030 H         1 UNK         0.1406 
     83 H83        29.2385   -3.2482   -1.7111 H         1 UNK         0.1631 
     84 H84        29.9527    0.3746   -1.2394 H         1 UNK         0.0717 
     85 H85        29.2645   -1.0421   -0.4968 H         1 UNK         0.0717 
     86 H86        27.5311    1.8858   -3.4491 H         1 UNK         0.0934 
     87 H87        29.1721    1.2884   -3.4450 H         1 UNK         0.0934 
     88 H88        28.3398   -0.7554   -4.7738 H         1 UNK         0.0739 
     89 H89        26.1645   -1.0322   -4.7920 H         1 UNK         0.3093 
     90 H90        23.3532    1.0535   -5.6760 H         1 UNK         0.0818 
     91 H91        22.8134   -1.2149   -6.4898 H         1 UNK         0.0819 
     92 H92        24.1423   -0.5510   -7.4258 H         1 UNK         0.0819 
     93 H93        24.4588   -1.7640   -6.1923 H         1 UNK         0.0819 
     94 H94        23.6872   -1.2343   -3.8886 H         1 UNK         0.3041 
     95 H95        23.5116    0.6892   -0.9045 H         1 UNK         0.0784 
     96 H96        21.1288    0.3660   -1.3908 H         1 UNK         0.0793 
     97 H97        21.4211   -1.2299   -2.0562 H         1 UNK         0.0793 
     98 H98        21.6923   -0.9242   -0.3407 H         1 UNK         0.0793 
     99 H99        24.9716   -0.9239   -0.7760 H         1 UNK         0.3024 
    100 H100       26.2997   -2.6153   -1.3888 H         1 UNK         0.1171 
    101 H101       24.8973   -3.4012    0.5442 H         1 UNK         0.0786 
    102 H102       26.0331   -4.6380    0.0351 H         1 UNK         0.0786 
    103 H103       24.3310   -4.7618   -0.4139 H         1 UNK         0.0786 
    104 H104       25.8804   -5.1775   -2.3627 H         1 UNK         0.2977 
    105 H105       28.6453    2.6561   -5.1531 H         1 UNK         0.3127 
    106 H106       30.2025    2.4800   -7.4933 H         1 UNK         0.0770 
    107 H107       28.8140    4.9032   -6.2356 H         1 UNK         0.0814 
    108 H108       30.0970    4.9757   -7.4355 H         1 UNK         0.0814 
    109 H109       30.4318    4.3137   -5.8457 H         1 UNK         0.0814 
    110 H110       26.7055    2.6843   -7.2115 H         1 UNK         0.2983 
    111 H111       26.2447    3.6110   -9.9340 H         1 UNK         0.0947 
    112 H112       23.9004    3.0483   -9.4609 H         1 UNK         0.0806 
    113 H113       24.5630    3.9121   -8.0823 H         1 UNK         0.0806 
    114 H114       24.3452    2.1635   -8.0125 H         1 UNK         0.0806 
    115 H115       27.0793    0.5460   -8.4776 H         1 UNK         0.3000 
    116 H116       26.2746   -1.0200  -10.8749 H         1 UNK         0.0850 
    117 H117       27.0143   -2.9706   -9.5427 H         1 UNK         0.0810 
    118 H118       27.4789   -1.9331   -8.2044 H         1 UNK         0.0810 
    119 H119       25.7886   -2.0563   -8.6776 H         1 UNK         0.0810 
    120 H120       29.1815   -0.3393   -8.8214 H         1 UNK         0.3040 
    121 H121       30.8366    0.3328  -11.0388 H         1 UNK         0.0766 
    122 H122       31.3642   -2.3975   -9.7230 H         1 UNK         0.0812 
    123 H123       32.5077   -1.5518  -10.7547 H         1 UNK         0.0812 
    124 H124       30.9911   -2.1268  -11.4235 H         1 UNK         0.0812 
    125 H125       32.3762    1.6916  -10.2258 H         1 UNK         0.3205 
    126 H126       32.5162    2.2333   -7.3802 H         1 UNK         0.0754 
    127 H127       34.1496    3.9789   -8.1053 H         1 UNK         0.0769 
    128 H128       32.6913    4.0494   -9.0797 H         1 UNK         0.0769 
    129 H129       34.1591    3.3213   -9.7354 H         1 UNK         0.0769 
    130 H130       34.3788    2.0829   -6.0282 H         1 UNK         0.2981 
    131 H131       36.7107    0.6522   -6.8464 H         1 UNK         0.0541 
    132 H132       38.2072    0.2794   -4.7776 H         1 UNK         0.3459 
    133 H133       38.2190    1.6638   -3.7164 H         1 UNK         0.3459 
    134 H134       36.5380   -1.2796   -5.3641 H         1 UNK         0.0612 
    135 H135       35.2317   -1.3124   -6.4968 H         1 UNK         0.0612 
    136 H136       32.5308   -0.1274   -5.4480 H         1 UNK         0.0624 
    137 H137       32.9758   -1.7349   -5.9725 H         1 UNK         0.0624 
@<TRIPOS>BOND
     1    1    2 1    
     2    1   72 1    
     3    1   73 1    
     4    1   74 1    
     5    2    3 2    
     6    2    4 am   BACKBONE|DICT|INTERRES
     7    4    5 1    
     8    4   75 1    
     9    5    6 1    
    10    5   35 1    
    11    5   76 1    
    12    6    7 1    
    13    6   77 1    
    14    6   78 1    
    15    7    8 1    
    16    8    9 1    
    17    8   79 1    
    18    8   80 1    
    19    9   10 ar   
    20    9   14 ar   
    21   10   11 ar   
    22   10   81 1    
    23   11   12 ar   
    24   11   71 1    
    25   12   13 ar   
    26   12   82 1    
    27   13   14 ar   
    28   13   15 1    
    29   14   83 1    
    30   15   16 1    
    31   15   84 1    
    32   15   85 1    
    33   16   17 1    
    34   17   18 1    
    35   17   86 1    
    36   17   87 1    
    37   18   19 1    
    38   18   37 1    
    39   18   88 1    
    40   19   20 am   BACKBONE|DICT|INTERRES
    41   19   89 1    
    42   20   21 2    
    43   20   22 1    
    44   22   23 1    
    45   22   24 1    
    46   22   90 1    
    47   23   91 1    
    48   23   92 1    
    49   23   93 1    
    50   24   25 am   BACKBONE|DICT|INTERRES
    51   24   94 1    
    52   25   26 2    
    53   25   27 1    
    54   27   28 1    
    55   27   29 1    
    56   27   95 1    
    57   28   96 1    
    58   28   97 1    
    59   28   98 1    
    60   29   30 am   BACKBONE|DICT|INTERRES
    61   29   99 1    
    62   30   31 2    
    63   30   32 1    
    64   32   33 1    
    65   32   34 1    
    66   32  100 1    
    67   33  101 1    
    68   33  102 1    
    69   33  103 1    
    70   34   35 am   BACKBONE|DICT|INTERRES
    71   34  104 1    
    72   35   36 2    
    73   37   38 2    
    74   37   39 am   BACKBONE|DICT|INTERRES
    75   39   40 1    
    76   39  105 1    
    77   40   41 1    
    78   40   42 1    
    79   40  106 1    
    80   41  107 1    
    81   41  108 1    
    82   41  109 1    
    83   42   43 2    
    84   42   44 am   BACKBONE|DICT|INTERRES
    85   44   45 1    
    86   44  110 1    
    87   45   46 1    
    88   45   47 1    
    89   45  111 1    
    90   46  112 1    
    91   46  113 1    
    92   46  114 1    
    93   47   48 2    
    94   47   49 am   BACKBONE|DICT|INTERRES
    95   49   50 1    
    96   49  115 1    
    97   50   51 1    
    98   50   52 1    
    99   50  116 1    
   100   51  117 1    
   101   51  118 1    
   102   51  119 1    
   103   52   53 2    
   104   52   54 am   BACKBONE|DICT|INTERRES
   105   54   55 1    
   106   54  120 1    
   107   55   56 1    
   108   55   57 1    
   109   55  121 1    
   110   56  122 1    
   111   56  123 1    
   112   56  124 1    
   113   57   58 2    
   114   57   59 am   BACKBONE|DICT|INTERRES
   115   59   60 1    
   116   59  125 1    
   117   60   61 1    
   118   60   62 1    
   119   60  126 1    
   120   61  127 1    
   121   61  128 1    
   122   61  129 1    
   123   62   63 2    
   124   62   64 am   BACKBONE|DICT|INTERRES
   125   64   65 1    
   126   64  130 1    
   127   65   66 1    
   128   65   69 1    
   129   65  131 1    
   130   66   67 am   BACKBONE|DICT|INTERRES
   131   66   68 2    
   132   67  132 1    
   133   67  133 1    
   134   69   70 1    
   135   69  134 1    
   136   69  135 1    
   137   70   71 1    
   138   71  136 1    
   139   71  137 1    
@<TRIPOS>SUBSTRUCTURE
     1 UNK         1 GROUP             0       ****    0 ROOT    
