@<TRIPOS>MOLECULE
3R137
137   139    1
SMALL
USER_CHARGES


@<TRIPOS>ATOM
      1 CA         31.4833   -0.8575    2.1156 C.3       0 UNK        -0.2020 
      2 C          30.5142   -1.0583    0.9600 C.2       0 UNK         0.4855 
      3 O          30.3912   -0.1800    0.1068 O.2       0 UNK        -0.5197 
      4 N          29.8338   -2.2105    0.9245 N.am      1 UNK        -0.4892 
      5 CA         28.8395   -2.5802   -0.0909 C.3       1 UNK         0.0835 
      6 C6         28.4399   -4.0756    0.0164 C.3       12 UNK        -0.0855 
      7 S7         29.8716   -5.2085    0.0778 S.3       12 UNK        -0.2931 
      8 C8         29.6769   -6.1757   -1.4561 C.3       12 UNK         0.0378 
      9 C9         30.0205   -5.4188   -2.7377 C.ar      12 UNK        -0.0802 
     10 C10        31.0768   -4.4982   -2.7898 C.ar      12 UNK        -0.0944 
     11 C11        31.4156   -3.8740   -3.9938 C.ar      12 UNK        -0.0787 
     12 C12        30.7094   -4.1894   -5.1542 C.ar      12 UNK        -0.0862 
     13 C13        29.6384   -5.0844   -5.1152 C.ar      12 UNK        -0.0733 
     14 C14        29.3008   -5.6979   -3.9055 C.ar      12 UNK        -0.0832 
     15 C15        28.8476   -5.3800   -6.3821 C.3       12 UNK         0.0240 
     16 S16        27.3372   -4.3668   -6.4840 S.3       12 UNK        -0.2522 
     17 C17        28.0271   -2.6775   -6.4404 C.3       12 UNK        -0.0967 
     18 CA         27.2671   -1.6803   -7.3386 C.3       5 UNK         0.0660 
     19 N          25.8431   -1.6035   -7.0099 N.am      5 UNK        -0.4015 
     20 C          24.9163   -1.0707   -7.8177 C.2       4 UNK         0.4946 
     21 O          25.1695   -0.6228   -8.9352 O.2       4 UNK        -0.5353 
     22 CA         23.4786   -0.9627   -7.2773 C.3       4 UNK         0.0277 
     23 CB         22.6617   -2.2007   -7.6783 C.3       4 UNK        -0.1981 
     24 N          23.4062   -0.7783   -5.8248 N.am      4 UNK        -0.4209 
     25 C          23.9832    0.2229   -5.1457 C.2       3 UNK         0.4942 
     26 O          24.6111    1.1351   -5.6852 O.2       3 UNK        -0.5208 
     27 CA         23.9146    0.1692   -3.6081 C.3       3 UNK         0.0250 
     28 CB         22.8121   -0.7673   -3.0625 C.3       3 UNK        -0.1990 
     29 N          25.2147   -0.1744   -3.0129 N.am      3 UNK        -0.4232 
     30 C          25.9675   -1.2565   -3.2806 C.2       2 UNK         0.4993 
     31 O          25.6774   -2.1064   -4.1218 O.2       2 UNK        -0.5286 
     32 CA         27.2443   -1.4337   -2.4492 C.3       2 UNK         0.0209 
     33 CB         28.3384   -0.4480   -2.9027 C.3       2 UNK        -0.1931 
     34 N          26.9279   -1.2395   -1.0329 N.am      2 UNK        -0.4546 
     35 C          27.5771   -1.6919    0.0473 C.2       1 UNK         0.5154 
     36 O          27.1534   -1.4470    1.1786 O.2       1 UNK        -0.5181 
     37 C          27.9508   -0.2964   -7.3024 C.2       5 UNK         0.5014 
     38 O          28.9169   -0.0891   -8.0388 O.2       5 UNK        -0.5248 
     39 N          27.4471    0.6347   -6.4760 N.am      6 UNK        -0.4434 
     40 CA         27.9105    2.0238   -6.4518 C.3       6 UNK         0.0363 
     41 CB         27.5664    2.6962   -5.1143 C.3       6 UNK        -0.1936 
     42 C          27.3418    2.8174   -7.6353 C.2       6 UNK         0.5081 
     43 O          28.0701    3.6151   -8.2226 O.2       6 UNK        -0.5248 
     44 N          26.0842    2.5408   -8.0136 N.am      7 UNK        -0.4718 
     45 CA         25.4523    3.0717   -9.2283 C.3       7 UNK         0.0273 
     46 CB         23.9589    2.7102   -9.2417 C.3       7 UNK        -0.1935 
     47 C          26.1506    2.5926  -10.5162 C.2       7 UNK         0.5018 
     48 O          26.3144    3.3819  -11.4466 O.2       7 UNK        -0.5186 
     49 N          26.5987    1.3286  -10.5219 N.am      8 UNK        -0.4240 
     50 CA         27.4455    0.7319  -11.5608 C.3       8 UNK         0.0235 
     51 CB         27.3713   -0.7996  -11.4442 C.3       8 UNK        -0.2000 
     52 C          28.9162    1.1994  -11.5178 C.2       8 UNK         0.4941 
     53 O          29.6672    0.8678  -12.4359 O.2       8 UNK        -0.5273 
     54 N          29.3033    1.9428  -10.4695 N.am      9 UNK        -0.4262 
     55 CA         30.6310    2.5070  -10.2059 C.3       9 UNK         0.0264 
     56 CB         31.0048    3.5586  -11.2730 C.3       9 UNK        -0.1955 
     57 C          31.7297    1.4478   -9.9881 C.2       9 UNK         0.5031 
     58 O          32.8790    1.6768  -10.3712 O.2       9 UNK        -0.5390 
     59 N          31.3785    0.3206   -9.3510 N.am      10 UNK        -0.4204 
     60 CA         32.3301   -0.7246   -8.9582 C.3       10 UNK         0.0237 
     61 CB         31.5782   -2.0363   -8.6855 C.3       10 UNK        -0.1985 
     62 C          33.1618   -0.3142   -7.7304 C.2       10 UNK         0.4970 
     63 O          34.3564   -0.6089   -7.6828 O.2       10 UNK        -0.4914 
     64 N          32.5177    0.3675   -6.7763 N.am      11 UNK        -0.4285 
     65 CA         33.1214    0.8934   -5.5420 C.3       11 UNK         0.1007 
     66 C          32.4008    2.1629   -5.0011 C.2       11 UNK         0.5703 
     67 N          31.6060    2.8623   -5.8043 N.am      11 UNK        -0.7361 
     68 O          32.5817    2.5439   -3.8472 O.2       11 UNK        -0.4986 
     69 C69        33.3728   -0.2051   -4.4677 C.3       12 UNK        -0.0947 
     70 S70        31.8830   -1.1624   -4.0240 S.3       12 UNK        -0.2240 
     71 C71        32.5419   -2.8573   -4.0613 C.3       12 UNK         0.0194 
     72 H72        31.1959    0.0175    2.6980 H         1 UNK         0.0906 
     73 H73        31.5055   -1.7179    2.7843 H         1 UNK         0.0906 
     74 H74        32.4920   -0.6978    1.7354 H         1 UNK         0.0906 
     75 H75        29.9735   -2.8952    1.6537 H         1 UNK         0.3140 
     76 H76        29.3110   -2.4239   -1.0604 H         1 UNK         0.1085 
     77 H77        27.8526   -4.2521    0.9203 H         1 UNK         0.0836 
     78 H78        27.7934   -4.3523   -0.8186 H         1 UNK         0.0836 
     79 H79        28.6579   -6.5641   -1.4972 H         1 UNK         0.0731 
     80 H80        30.3315   -7.0460   -1.3947 H         1 UNK         0.0731 
     81 H81        31.6432   -4.2712   -1.8972 H         1 UNK         0.1312 
     82 H82        30.9875   -3.7181   -6.0860 H         1 UNK         0.1406 
     83 H83        28.4808   -6.4032   -3.8799 H         1 UNK         0.1631 
     84 H84        28.5697   -6.4347   -6.4073 H         1 UNK         0.0717 
     85 H85        29.4605   -5.2052   -7.2680 H         1 UNK         0.0717 
     86 H86        28.0490   -2.3458   -5.4022 H         1 UNK         0.0934 
     87 H87        29.0633   -2.7204   -6.7682 H         1 UNK         0.0934 
     88 H88        27.3451   -2.0445   -8.3648 H         1 UNK         0.0739 
     89 H89        25.5773   -1.9415   -6.0883 H         1 UNK         0.3093 
     90 H90        23.0214   -0.0859   -7.7396 H         1 UNK         0.0818 
     91 H91        21.6165   -2.1000   -7.3853 H         1 UNK         0.0819 
     92 H92        22.6803   -2.3458   -8.7596 H         1 UNK         0.0819 
     93 H93        23.0546   -3.1098   -7.2209 H         1 UNK         0.0819 
     94 H94        22.9448   -1.5044   -5.2960 H         1 UNK         0.3041 
     95 H95        23.6772    1.1832   -3.2824 H         1 UNK         0.0784 
     96 H96        21.8366   -0.5170   -3.4820 H         1 UNK         0.0793 
     97 H97        23.0110   -1.8174   -3.2798 H         1 UNK         0.0793 
     98 H98        22.7241   -0.6719   -1.9801 H         1 UNK         0.0793 
     99 H99        25.5794    0.5099   -2.3654 H         1 UNK         0.3024 
    100 H100       27.5876   -2.4571   -2.6172 H         1 UNK         0.1171 
    101 H101       29.3000   -0.6591   -2.4380 H         1 UNK         0.0786 
    102 H102       28.4955   -0.4897   -3.9806 H         1 UNK         0.0786 
    103 H103       28.0798    0.5789   -2.6469 H         1 UNK         0.0786 
    104 H104       26.0650   -0.7437   -0.8613 H         1 UNK         0.2977 
    105 H105       26.5980    0.4356   -5.9613 H         1 UNK         0.3127 
    106 H106       28.9978    2.0277   -6.5478 H         1 UNK         0.0770 
    107 H107       26.4959    2.6972   -4.9124 H         1 UNK         0.0814 
    108 H108       27.8957    3.7361   -5.1098 H         1 UNK         0.0814 
    109 H109       28.0689    2.2023   -4.2851 H         1 UNK         0.0814 
    110 H110       25.5361    1.9070   -7.4424 H         1 UNK         0.2983 
    111 H111       25.5376    4.1602   -9.1946 H         1 UNK         0.0947 
    112 H112       23.4566    3.1727  -10.0923 H         1 UNK         0.0806 
    113 H113       23.4563    3.0588   -8.3392 H         1 UNK         0.0806 
    114 H114       23.8015    1.6349   -9.3201 H         1 UNK         0.0806 
    115 H115       26.3165    0.7169   -9.7605 H         1 UNK         0.3000 
    116 H116       27.0430    1.0205  -12.5340 H         1 UNK         0.0850 
    117 H117       27.9150   -1.2813  -12.2579 H         1 UNK         0.0810 
    118 H118       26.3413   -1.1542  -11.4886 H         1 UNK         0.0810 
    119 H119       27.8084   -1.1507  -10.5097 H         1 UNK         0.0810 
    120 H120       28.6049    2.1666   -9.7717 H         1 UNK         0.3040 
    121 H121       30.5429    3.0345   -9.2554 H         1 UNK         0.0766 
    122 H122       31.1773    3.1030  -12.2484 H         1 UNK         0.0812 
    123 H123       31.9166    4.0898  -10.9974 H         1 UNK         0.0812 
    124 H124       30.2186    4.3054  -11.3850 H         1 UNK         0.0812 
    125 H125       30.4140    0.2041   -9.0396 H         1 UNK         0.3205 
    126 H126       33.0179   -0.8968   -9.7891 H         1 UNK         0.0754 
    127 H127       32.2746   -2.8470   -8.4670 H         1 UNK         0.0769 
    128 H128       30.9811   -2.3406   -9.5454 H         1 UNK         0.0769 
    129 H129       30.9120   -1.9401   -7.8300 H         1 UNK         0.0769 
    130 H130       31.5259    0.5258   -6.8748 H         1 UNK         0.2981 
    131 H131       34.1047    1.2773   -5.8195 H         1 UNK         0.0541 
    132 H132       31.5233    2.6392   -6.7805 H         1 UNK         0.3459 
    133 H133       31.1629    3.6900   -5.4386 H         1 UNK         0.3459 
    134 H134       33.7921    0.2246   -3.5566 H         1 UNK         0.0612 
    135 H135       34.1381   -0.8884   -4.8374 H         1 UNK         0.0612 
    136 H136       33.1125   -3.0096   -4.9790 H         1 UNK         0.0624 
    137 H137       33.2378   -2.9935   -3.2322 H         1 UNK         0.0624 
@<TRIPOS>BOND
     1    1    2 1    
     2    1   72 1    
     3    1   73 1    
     4    1   74 1    
     5    2    3 2    
     6    2    4 am   BACKBONE|DICT|INTERRES
     7    4    5 1    
     8    4   75 1    
     9    5    6 1    
    10    5   35 1    
    11    5   76 1    
    12    6    7 1    
    13    6   77 1    
    14    6   78 1    
    15    7    8 1    
    16    8    9 1    
    17    8   79 1    
    18    8   80 1    
    19    9   10 ar   
    20    9   14 ar   
    21   10   11 ar   
    22   10   81 1    
    23   11   12 ar   
    24   11   71 1    
    25   12   13 ar   
    26   12   82 1    
    27   13   14 ar   
    28   13   15 1    
    29   14   83 1    
    30   15   16 1    
    31   15   84 1    
    32   15   85 1    
    33   16   17 1    
    34   17   18 1    
    35   17   86 1    
    36   17   87 1    
    37   18   19 1    
    38   18   37 1    
    39   18   88 1    
    40   19   20 am   BACKBONE|DICT|INTERRES
    41   19   89 1    
    42   20   21 2    
    43   20   22 1    
    44   22   23 1    
    45   22   24 1    
    46   22   90 1    
    47   23   91 1    
    48   23   92 1    
    49   23   93 1    
    50   24   25 am   BACKBONE|DICT|INTERRES
    51   24   94 1    
    52   25   26 2    
    53   25   27 1    
    54   27   28 1    
    55   27   29 1    
    56   27   95 1    
    57   28   96 1    
    58   28   97 1    
    59   28   98 1    
    60   29   30 am   BACKBONE|DICT|INTERRES
    61   29   99 1    
    62   30   31 2    
    63   30   32 1    
    64   32   33 1    
    65   32   34 1    
    66   32  100 1    
    67   33  101 1    
    68   33  102 1    
    69   33  103 1    
    70   34   35 am   BACKBONE|DICT|INTERRES
    71   34  104 1    
    72   35   36 2    
    73   37   38 2    
    74   37   39 am   BACKBONE|DICT|INTERRES
    75   39   40 1    
    76   39  105 1    
    77   40   41 1    
    78   40   42 1    
    79   40  106 1    
    80   41  107 1    
    81   41  108 1    
    82   41  109 1    
    83   42   43 2    
    84   42   44 am   BACKBONE|DICT|INTERRES
    85   44   45 1    
    86   44  110 1    
    87   45   46 1    
    88   45   47 1    
    89   45  111 1    
    90   46  112 1    
    91   46  113 1    
    92   46  114 1    
    93   47   48 2    
    94   47   49 am   BACKBONE|DICT|INTERRES
    95   49   50 1    
    96   49  115 1    
    97   50   51 1    
    98   50   52 1    
    99   50  116 1    
   100   51  117 1    
   101   51  118 1    
   102   51  119 1    
   103   52   53 2    
   104   52   54 am   BACKBONE|DICT|INTERRES
   105   54   55 1    
   106   54  120 1    
   107   55   56 1    
   108   55   57 1    
   109   55  121 1    
   110   56  122 1    
   111   56  123 1    
   112   56  124 1    
   113   57   58 2    
   114   57   59 am   BACKBONE|DICT|INTERRES
   115   59   60 1    
   116   59  125 1    
   117   60   61 1    
   118   60   62 1    
   119   60  126 1    
   120   61  127 1    
   121   61  128 1    
   122   61  129 1    
   123   62   63 2    
   124   62   64 am   BACKBONE|DICT|INTERRES
   125   64   65 1    
   126   64  130 1    
   127   65   66 1    
   128   65   69 1    
   129   65  131 1    
   130   66   67 am   BACKBONE|DICT|INTERRES
   131   66   68 2    
   132   67  132 1    
   133   67  133 1    
   134   69   70 1    
   135   69  134 1    
   136   69  135 1    
   137   70   71 1    
   138   71  136 1    
   139   71  137 1    
@<TRIPOS>SUBSTRUCTURE
     1 UNK         1 GROUP             0       ****    0 ROOT    
