@<TRIPOS>MOLECULE
3R137
137   139    1
SMALL
USER_CHARGES


@<TRIPOS>ATOM
      1 CA         30.6440   -6.8681   -2.1563 C.3       0 UNK        -0.2020 
      2 C          29.9599   -6.0034   -1.1082 C.2       0 UNK         0.4855 
      3 O          29.4869   -6.5226   -0.0967 O.2       0 UNK        -0.5197 
      4 N          29.9007   -4.6895   -1.3480 N.am      1 UNK        -0.4892 
      5 CA         29.1992   -3.7105   -0.5080 C.3       1 UNK         0.0835 
      6 C6         29.8348   -2.3042   -0.6138 C.3       12 UNK        -0.0855 
      7 S7         31.5595   -2.3143   -0.0193 S.3       12 UNK        -0.2931 
      8 C8         32.0185   -0.5629   -0.2017 C.3       12 UNK         0.0378 
      9 C9         32.0362   -0.1115   -1.6562 C.ar      12 UNK        -0.0802 
     10 C10        32.8969   -0.7198   -2.5756 C.ar      12 UNK        -0.0944 
     11 C11        32.9428   -0.2835   -3.9025 C.ar      12 UNK        -0.0787 
     12 C12        32.1203    0.7725   -4.3047 C.ar      12 UNK        -0.0862 
     13 C13        31.2432    1.3807   -3.4027 C.ar      12 UNK        -0.0733 
     14 C14        31.2136    0.9381   -2.0755 C.ar      12 UNK        -0.0832 
     15 C15        30.3705    2.5413   -3.8694 C.3       12 UNK         0.0240 
     16 S16        28.6527    2.4712   -3.2617 S.3       12 UNK        -0.2522 
     17 C17        28.0556    0.8836   -3.9454 C.3       12 UNK        -0.0967 
     18 CA         27.9101    0.7725   -5.4891 C.3       5 UNK         0.0660 
     19 N          27.1706   -0.4447   -5.8369 N.am      5 UNK        -0.4015 
     20 C          26.9411   -0.8901   -7.0806 C.2       4 UNK         0.4946 
     21 O          27.5334   -0.4499   -8.0684 O.2       4 UNK        -0.5353 
     22 CA         25.8611   -1.9786   -7.2739 C.3       4 UNK         0.0277 
     23 CB         26.5104   -3.3413   -7.5523 C.3       4 UNK        -0.1981 
     24 N          24.9408   -2.1533   -6.1463 N.am      4 UNK        -0.4209 
     25 C          24.1936   -1.2169   -5.5448 C.2       3 UNK         0.4942 
     26 O          24.0719   -0.0675   -5.9629 O.2       3 UNK        -0.5208 
     27 CA         23.5532   -1.6014   -4.1960 C.3       3 UNK         0.0250 
     28 CB         22.0616   -1.9200   -4.3839 C.3       3 UNK        -0.1990 
     29 N          24.2102   -2.7259   -3.5099 N.am      3 UNK        -0.4232 
     30 C          25.5081   -2.7900   -3.1714 C.2       2 UNK         0.4993 
     31 O          26.3153   -1.8801   -3.3825 O.2       2 UNK        -0.5286 
     32 CA         25.9827   -4.1324   -2.5953 C.3       2 UNK         0.0209 
     33 CB         25.9484   -5.2282   -3.6763 C.3       2 UNK        -0.1931 
     34 N          27.3500   -4.0461   -2.0892 N.am      2 UNK        -0.4546 
     35 C          27.6963   -3.6675   -0.8524 C.2       1 UNK         0.5154 
     36 O          26.8840   -3.3298    0.0107 O.2       1 UNK        -0.5181 
     37 C          27.2907    2.0330   -6.1455 C.2       5 UNK         0.5014 
     38 O          28.0337    2.8804   -6.6444 O.2       5 UNK        -0.5248 
     39 N          25.9502    2.1184   -6.1873 N.am      6 UNK        -0.4434 
     40 CA         25.1990    3.2648   -6.7147 C.3       6 UNK         0.0363 
     41 CB         23.7218    3.1436   -6.3065 C.3       6 UNK        -0.1936 
     42 C          25.3232    3.4643   -8.2366 C.2       6 UNK         0.5081 
     43 O          24.9726    4.5373   -8.7279 O.2       6 UNK        -0.5248 
     44 N          25.8399    2.4579   -8.9569 N.am      7 UNK        -0.4718 
     45 CA         26.1879    2.5481  -10.3781 C.3       7 UNK         0.0273 
     46 CB         26.3741    1.1268  -10.9367 C.3       7 UNK        -0.1935 
     47 C          27.4455    3.4014  -10.6458 C.2       7 UNK         0.5018 
     48 O          27.6975    3.7351  -11.8039 O.2       7 UNK        -0.5186 
     49 N          28.2095    3.7153   -9.5862 N.am      8 UNK        -0.4240 
     50 CA         29.4972    4.4147   -9.5745 C.3       8 UNK         0.0235 
     51 CB         29.2887    5.9073   -9.9109 C.3       8 UNK        -0.2000 
     52 C          30.5754    3.7426  -10.4603 C.2       8 UNK         0.4941 
     53 O          31.1112    4.4009  -11.3522 O.2       8 UNK        -0.5273 
     54 N          30.9182    2.4612  -10.2613 N.am      9 UNK        -0.4262 
     55 CA         30.4269    1.4910   -9.2847 C.3       9 UNK         0.0264 
     56 CB         31.0874    1.7149   -7.9125 C.3       9 UNK        -0.1955 
     57 C          30.7699    0.0959   -9.8091 C.2       9 UNK         0.5031 
     58 O          31.8444   -0.0809  -10.3893 O.2       9 UNK        -0.5390 
     59 N          29.8740   -0.8651   -9.5624 N.am      10 UNK        -0.4204 
     60 CA         30.1078   -2.2954   -9.7799 C.3       10 UNK         0.0237 
     61 CB         28.9381   -2.8826  -10.5907 C.3       10 UNK        -0.1985 
     62 C          30.3538   -3.0447   -8.4534 C.2       10 UNK         0.4970 
     63 O          30.6990   -4.2257   -8.4917 O.2       10 UNK        -0.4914 
     64 N          30.2000   -2.3456   -7.3177 N.am      11 UNK        -0.4285 
     65 CA         30.5758   -2.7179   -5.9379 C.3       11 UNK         0.1007 
     66 C          29.7928   -3.9018   -5.3028 C.2       11 UNK         0.5703 
     67 N          29.3333   -4.8807   -6.0671 N.am      11 UNK        -0.7361 
     68 O          29.5898   -3.9221   -4.0917 O.2       11 UNK        -0.4986 
     69 C69        32.1059   -2.9301   -5.7634 C.3       12 UNK        -0.0947 
     70 S70        33.1006   -1.5346   -6.3961 S.3       12 UNK        -0.2240 
     71 C71        33.9149   -0.9218   -4.8865 C.3       12 UNK         0.0194 
     72 H72        31.4977   -7.3847   -1.7185 H         1 UNK         0.0906 
     73 H73        29.9494   -7.6166   -2.5365 H         1 UNK         0.0906 
     74 H74        31.0006   -6.2783   -3.0010 H         1 UNK         0.0906 
     75 H75        30.2413   -4.3312   -2.2344 H         1 UNK         0.3140 
     76 H76        29.2693   -4.0303    0.5344 H         1 UNK         0.1085 
     77 H77        29.2727   -1.5802   -0.0203 H         1 UNK         0.0836 
     78 H78        29.8116   -1.9473   -1.6459 H         1 UNK         0.0836 
     79 H79        33.0114   -0.4139    0.2246 H         1 UNK         0.0731 
     80 H80        31.3356    0.0470    0.3920 H         1 UNK         0.0731 
     81 H81        33.5386   -1.5272   -2.2498 H         1 UNK         0.1312 
     82 H82        32.1765    1.1259   -5.3238 H         1 UNK         0.1406 
     83 H83        30.5530    1.4187   -1.3666 H         1 UNK         0.1631 
     84 H84        30.3482    2.5954   -4.9585 H         1 UNK         0.0717 
     85 H85        30.8217    3.4732   -3.5267 H         1 UNK         0.0717 
     86 H86        28.6964    0.0801   -3.5779 H         1 UNK         0.0934 
     87 H87        27.0846    0.7097   -3.4781 H         1 UNK         0.0934 
     88 H88        28.9121    0.6646   -5.9051 H         1 UNK         0.0739 
     89 H89        26.7111   -0.9167   -5.0622 H         1 UNK         0.3093 
     90 H90        25.2715   -1.6848   -8.1443 H         1 UNK         0.0818 
     91 H91        25.7782   -4.0624   -7.9162 H         1 UNK         0.0819 
     92 H92        27.2935   -3.2739   -8.3021 H         1 UNK         0.0819 
     93 H93        26.9655   -3.7537   -6.6534 H         1 UNK         0.0819 
     94 H94        24.9492   -3.0655   -5.7156 H         1 UNK         0.3041 
     95 H95        23.6389   -0.7298   -3.5438 H         1 UNK         0.0784 
     96 H96        21.9118   -2.8045   -5.0044 H         1 UNK         0.0793 
     97 H97        21.5433   -1.0908   -4.8681 H         1 UNK         0.0793 
     98 H98        21.5678   -2.0916   -3.4272 H         1 UNK         0.0793 
     99 H99        23.6220   -3.5218   -3.3058 H         1 UNK         0.3024 
    100 H100       25.3119   -4.4130   -1.7796 H         1 UNK         0.1171 
    101 H101       26.2859   -6.1849   -3.2766 H         1 UNK         0.0786 
    102 H102       24.9400   -5.3836   -4.0614 H         1 UNK         0.0786 
    103 H103       26.5894   -4.9794   -4.5228 H         1 UNK         0.0786 
    104 H104       28.0943   -4.2110   -2.7587 H         1 UNK         0.2977 
    105 H105       25.3881    1.3362   -5.8608 H         1 UNK         0.3127 
    106 H106       25.6049    4.1627   -6.2437 H         1 UNK         0.0770 
    107 H107       23.2366    2.2979   -6.7949 H         1 UNK         0.0814 
    108 H108       23.1660    4.0396   -6.5861 H         1 UNK         0.0814 
    109 H109       23.6131    3.0186   -5.2291 H         1 UNK         0.0814 
    110 H110       26.1042    1.6086   -8.4762 H         1 UNK         0.2983 
    111 H111       25.3563    3.0192  -10.9069 H         1 UNK         0.0947 
    112 H112       26.5490    1.1518  -12.0131 H         1 UNK         0.0806 
    113 H113       25.4900    0.5120  -10.7678 H         1 UNK         0.0806 
    114 H114       27.2266    0.6210  -10.4837 H         1 UNK         0.0806 
    115 H115       27.9076    3.3805   -8.6768 H         1 UNK         0.3000 
    116 H116       29.8622    4.3727   -8.5490 H         1 UNK         0.0850 
    117 H117       30.2216    6.4641   -9.8139 H         1 UNK         0.0810 
    118 H118       28.5663    6.3675   -9.2366 H         1 UNK         0.0810 
    119 H119       28.9302    6.0477  -10.9312 H         1 UNK         0.0810 
    120 H120       31.6091    2.0539  -10.8798 H         1 UNK         0.3040 
    121 H121       29.3452    1.5418   -9.1815 H         1 UNK         0.0766 
    122 H122       32.1752    1.7408   -7.9904 H         1 UNK         0.0812 
    123 H123       30.8346    0.9065   -7.2273 H         1 UNK         0.0812 
    124 H124       30.7625    2.6418   -7.4442 H         1 UNK         0.0812 
    125 H125       28.9942   -0.6231   -9.1033 H         1 UNK         0.3205 
    126 H126       31.0155   -2.4457  -10.3682 H         1 UNK         0.0754 
    127 H127       29.0211   -2.5975  -11.6396 H         1 UNK         0.0769 
    128 H128       27.9711   -2.5237  -10.2416 H         1 UNK         0.0769 
    129 H129       28.9267   -3.9729  -10.5561 H         1 UNK         0.0769 
    130 H130       29.8753   -1.3973   -7.4140 H         1 UNK         0.2981 
    131 H131       30.3077   -1.8465   -5.3381 H         1 UNK         0.0541 
    132 H132       29.5872   -4.8909   -7.0482 H         1 UNK         0.3459 
    133 H133       28.8384   -5.6541   -5.6557 H         1 UNK         0.3459 
    134 H134       32.4270   -3.8314   -6.2882 H         1 UNK         0.0612 
    135 H135       32.3485   -3.0918   -4.7113 H         1 UNK         0.0612 
    136 H136       34.4626   -1.7434   -4.4221 H         1 UNK         0.0624 
    137 H137       34.6600   -0.1781   -5.1715 H         1 UNK         0.0624 
@<TRIPOS>BOND
     1    1    2 1    
     2    1   72 1    
     3    1   73 1    
     4    1   74 1    
     5    2    3 2    
     6    2    4 am   BACKBONE|DICT|INTERRES
     7    4    5 1    
     8    4   75 1    
     9    5    6 1    
    10    5   35 1    
    11    5   76 1    
    12    6    7 1    
    13    6   77 1    
    14    6   78 1    
    15    7    8 1    
    16    8    9 1    
    17    8   79 1    
    18    8   80 1    
    19    9   10 ar   
    20    9   14 ar   
    21   10   11 ar   
    22   10   81 1    
    23   11   12 ar   
    24   11   71 1    
    25   12   13 ar   
    26   12   82 1    
    27   13   14 ar   
    28   13   15 1    
    29   14   83 1    
    30   15   16 1    
    31   15   84 1    
    32   15   85 1    
    33   16   17 1    
    34   17   18 1    
    35   17   86 1    
    36   17   87 1    
    37   18   19 1    
    38   18   37 1    
    39   18   88 1    
    40   19   20 am   BACKBONE|DICT|INTERRES
    41   19   89 1    
    42   20   21 2    
    43   20   22 1    
    44   22   23 1    
    45   22   24 1    
    46   22   90 1    
    47   23   91 1    
    48   23   92 1    
    49   23   93 1    
    50   24   25 am   BACKBONE|DICT|INTERRES
    51   24   94 1    
    52   25   26 2    
    53   25   27 1    
    54   27   28 1    
    55   27   29 1    
    56   27   95 1    
    57   28   96 1    
    58   28   97 1    
    59   28   98 1    
    60   29   30 am   BACKBONE|DICT|INTERRES
    61   29   99 1    
    62   30   31 2    
    63   30   32 1    
    64   32   33 1    
    65   32   34 1    
    66   32  100 1    
    67   33  101 1    
    68   33  102 1    
    69   33  103 1    
    70   34   35 am   BACKBONE|DICT|INTERRES
    71   34  104 1    
    72   35   36 2    
    73   37   38 2    
    74   37   39 am   BACKBONE|DICT|INTERRES
    75   39   40 1    
    76   39  105 1    
    77   40   41 1    
    78   40   42 1    
    79   40  106 1    
    80   41  107 1    
    81   41  108 1    
    82   41  109 1    
    83   42   43 2    
    84   42   44 am   BACKBONE|DICT|INTERRES
    85   44   45 1    
    86   44  110 1    
    87   45   46 1    
    88   45   47 1    
    89   45  111 1    
    90   46  112 1    
    91   46  113 1    
    92   46  114 1    
    93   47   48 2    
    94   47   49 am   BACKBONE|DICT|INTERRES
    95   49   50 1    
    96   49  115 1    
    97   50   51 1    
    98   50   52 1    
    99   50  116 1    
   100   51  117 1    
   101   51  118 1    
   102   51  119 1    
   103   52   53 2    
   104   52   54 am   BACKBONE|DICT|INTERRES
   105   54   55 1    
   106   54  120 1    
   107   55   56 1    
   108   55   57 1    
   109   55  121 1    
   110   56  122 1    
   111   56  123 1    
   112   56  124 1    
   113   57   58 2    
   114   57   59 am   BACKBONE|DICT|INTERRES
   115   59   60 1    
   116   59  125 1    
   117   60   61 1    
   118   60   62 1    
   119   60  126 1    
   120   61  127 1    
   121   61  128 1    
   122   61  129 1    
   123   62   63 2    
   124   62   64 am   BACKBONE|DICT|INTERRES
   125   64   65 1    
   126   64  130 1    
   127   65   66 1    
   128   65   69 1    
   129   65  131 1    
   130   66   67 am   BACKBONE|DICT|INTERRES
   131   66   68 2    
   132   67  132 1    
   133   67  133 1    
   134   69   70 1    
   135   69  134 1    
   136   69  135 1    
   137   70   71 1    
   138   71  136 1    
   139   71  137 1    
@<TRIPOS>SUBSTRUCTURE
     1 UNK         1 GROUP             0       ****    0 ROOT    
