@<TRIPOS>MOLECULE
3R137
137   139    1
SMALL
USER_CHARGES


@<TRIPOS>ATOM
      1 CA         31.2593    0.5233   -0.1819 C.3       0 UNK        -0.2020 
      2 C          30.2686   -0.3794   -0.9016 C.2       0 UNK         0.4855 
      3 O          29.7703   -0.0113   -1.9629 O.2       0 UNK        -0.5197 
      4 N          29.9887   -1.5595   -0.3355 N.am      1 UNK        -0.4892 
      5 CA         29.0758   -2.5679   -0.8891 C.3       1 UNK         0.0835 
      6 C6         29.2062   -3.9241   -0.1504 C.3       12 UNK        -0.0855 
      7 S7         30.9138   -4.5658   -0.1495 S.3       12 UNK        -0.2931 
      8 C8         30.8513   -5.7899   -1.4979 C.3       12 UNK         0.0378 
      9 C9         30.6514   -5.1617   -2.8736 C.ar      12 UNK        -0.0802 
     10 C10        31.5267   -4.1752   -3.3377 C.ar      12 UNK        -0.0944 
     11 C11        31.3914   -3.6516   -4.6263 C.ar      12 UNK        -0.0787 
     12 C12        30.3704   -4.1223   -5.4572 C.ar      12 UNK        -0.0862 
     13 C13        29.4829   -5.1107   -5.0083 C.ar      12 UNK        -0.0733 
     14 C14        29.6287   -5.6168   -3.7118 C.ar      12 UNK        -0.0832 
     15 C15        28.4151   -5.7221   -5.9172 C.3       12 UNK         0.0240 
     16 S16        27.7858   -4.6248   -7.2301 S.3       12 UNK        -0.2522 
     17 C17        26.7008   -3.5234   -6.2695 C.3       12 UNK        -0.0967 
     18 CA         26.1599   -2.3610   -7.1372 C.3       5 UNK         0.0660 
     19 N          24.9235   -1.7987   -6.5968 N.am      5 UNK        -0.4015 
     20 C          23.9915   -1.1718   -7.3287 C.2       4 UNK         0.4946 
     21 O          24.0261   -1.0853   -8.5564 O.2       4 UNK        -0.5353 
     22 CA         22.8215   -0.5204   -6.5684 C.3       4 UNK         0.0277 
     23 CB         21.6227   -1.4806   -6.5031 C.3       4 UNK        -0.1981 
     24 N          23.1727   -0.0905   -5.2121 N.am      4 UNK        -0.4209 
     25 C          24.0296    0.9005   -4.9281 C.2       3 UNK         0.4942 
     26 O          24.5960    1.5834   -5.7811 O.2       3 UNK        -0.5208 
     27 CA         24.3499    1.1280   -3.4402 C.3       3 UNK         0.0250 
     28 CB         23.2912    2.0359   -2.7941 C.3       3 UNK        -0.1990 
     29 N          24.4871   -0.1073   -2.6552 N.am      3 UNK        -0.4232 
     30 C          25.3445   -1.1001   -2.9307 C.2       2 UNK         0.4993 
     31 O          26.0518   -1.1372   -3.9397 O.2       2 UNK        -0.5286 
     32 CA         25.3923   -2.2822   -1.9565 C.3       2 UNK         0.0209 
     33 CB         24.6071   -3.4750   -2.5267 C.3       2 UNK        -0.1931 
     34 N          26.7853   -2.6787   -1.7502 N.am      2 UNK        -0.4546 
     35 C          27.6069   -2.0936   -0.8699 C.2       1 UNK         0.5154 
     36 O          27.2335   -1.2542   -0.0446 O.2       1 UNK        -0.5181 
     37 C          27.2015   -1.2450   -7.3204 C.2       5 UNK         0.5014 
     38 O          27.7746   -1.1237   -8.4030 O.2       5 UNK        -0.5248 
     39 N          27.3900   -0.4196   -6.2797 N.am      6 UNK        -0.4434 
     40 CA         28.3116    0.7191   -6.2433 C.3       6 UNK         0.0363 
     41 CB         28.2187    1.4088   -4.8764 C.3       6 UNK        -0.1936 
     42 C          28.0796    1.7369   -7.3698 C.2       6 UNK         0.5081 
     43 O          29.0507    2.2523   -7.9189 O.2       6 UNK        -0.5248 
     44 N          26.8110    1.9596   -7.7407 N.am      7 UNK        -0.4718 
     45 CA         26.3995    2.7885   -8.8778 C.3       7 UNK         0.0273 
     46 CB         24.8645    2.8607   -8.9139 C.3       7 UNK        -0.1935 
     47 C          26.9439    2.3191  -10.2425 C.2       7 UNK         0.5018 
     48 O          27.1027    3.1529  -11.1352 O.2       7 UNK        -0.5186 
     49 N          27.2198    1.0150  -10.3832 N.am      8 UNK        -0.4240 
     50 CA         27.8168    0.4147  -11.5764 C.3       8 UNK         0.0235 
     51 CB         27.1000   -0.9090  -11.8925 C.3       8 UNK        -0.2000 
     52 C          29.3237    0.1815  -11.3891 C.2       8 UNK         0.4941 
     53 O          30.0977    0.4796  -12.2992 O.2       8 UNK        -0.5273 
     54 N          29.7132   -0.3585  -10.2258 N.am      9 UNK        -0.4262 
     55 CA         31.0874   -0.7443   -9.8958 C.3       9 UNK         0.0264 
     56 CB         31.0603   -1.7075   -8.6974 C.3       9 UNK        -0.1955 
     57 C          32.0283    0.4389   -9.6098 C.2       9 UNK         0.5031 
     58 O          33.2413    0.2735   -9.7435 O.2       9 UNK        -0.5390 
     59 N          31.4692    1.5874   -9.1992 N.am      10 UNK        -0.4204 
     60 CA         32.1475    2.8304   -8.8059 C.3       10 UNK         0.0237 
     61 CB         32.9710    3.4177   -9.9729 C.3       10 UNK        -0.1985 
     62 C          32.9586    2.7216   -7.4975 C.2       10 UNK         0.4970 
     63 O          33.7797    3.6001   -7.2264 O.2       10 UNK        -0.4914 
     64 N          32.7163    1.6702   -6.7035 N.am      11 UNK        -0.4285 
     65 CA         33.3152    1.4645   -5.3790 C.3       11 UNK         0.1007 
     66 C          32.6624    2.3337   -4.2656 C.2       11 UNK         0.5703 
     67 N          33.2809    2.4030   -3.0937 N.am      11 UNK        -0.7361 
     68 O          31.6135    2.9494   -4.4474 O.2       11 UNK        -0.4986 
     69 C69        33.4015   -0.0424   -5.0181 C.3       12 UNK        -0.0947 
     70 S70        31.8037   -0.9195   -4.9140 S.3       12 UNK        -0.2240 
     71 C71        32.3920   -2.6259   -5.1361 C.3       12 UNK         0.0194 
     72 H72        30.7928    1.4795    0.0535 H         1 UNK         0.0906 
     73 H73        31.6157    0.0804    0.7480 H         1 UNK         0.0906 
     74 H74        32.1218    0.7127   -0.8205 H         1 UNK         0.0906 
     75 H75        30.4237   -1.8088    0.5408 H         1 UNK         0.3140 
     76 H76        29.3566   -2.7123   -1.9351 H         1 UNK         0.1085 
     77 H77        28.8877   -3.8227    0.8891 H         1 UNK         0.0836 
     78 H78        28.5465   -4.6729   -0.5934 H         1 UNK         0.0836 
     79 H79        31.7900   -6.3454   -1.5054 H         1 UNK         0.0731 
     80 H80        30.0689   -6.5186   -1.2798 H         1 UNK         0.0731 
     81 H81        32.3276   -3.8284   -2.6988 H         1 UNK         0.1312 
     82 H82        30.2911   -3.7334   -6.4625 H         1 UNK         0.1406 
     83 H83        28.9651   -6.3990   -3.3676 H         1 UNK         0.1631 
     84 H84        28.8441   -6.6053   -6.3919 H         1 UNK         0.0717 
     85 H85        27.5686   -6.0735   -5.3249 H         1 UNK         0.0717 
     86 H86        25.8723   -4.1314   -5.9027 H         1 UNK         0.0934 
     87 H87        27.2269   -3.1614   -5.3834 H         1 UNK         0.0934 
     88 H88        25.9315   -2.7604   -8.1284 H         1 UNK         0.0739 
     89 H89        24.8628   -1.7513   -5.5880 H         1 UNK         0.3093 
     90 H90        22.5207    0.3655   -7.1324 H         1 UNK         0.0818 
     91 H91        20.7565   -1.0041   -6.0436 H         1 UNK         0.0819 
     92 H92        21.3225   -1.7972   -7.5031 H         1 UNK         0.0819 
     93 H93        21.8547   -2.3808   -5.9326 H         1 UNK         0.0819 
     94 H94        22.7509   -0.5948   -4.4457 H         1 UNK         0.3041 
     95 H95        25.3095    1.6452   -3.3914 H         1 UNK         0.0784 
     96 H96        23.1846    2.9681   -3.3512 H         1 UNK         0.0793 
     97 H97        22.3104    1.5595   -2.7654 H         1 UNK         0.0793 
     98 H98        23.5659    2.3023   -1.7733 H         1 UNK         0.0793 
     99 H99        23.9288   -0.1669   -1.8154 H         1 UNK         0.3024 
    100 H100       24.9472   -1.9899   -1.0024 H         1 UNK         0.1171 
    101 H101       24.6297   -4.3249   -1.8443 H         1 UNK         0.0786 
    102 H102       23.5593   -3.2154   -2.6833 H         1 UNK         0.0786 
    103 H103       25.0083   -3.8062   -3.4852 H         1 UNK         0.0786 
    104 H104       27.1673   -3.3308   -2.4194 H         1 UNK         0.2977 
    105 H105       26.8832   -0.6125   -5.4154 H         1 UNK         0.3127 
    106 H106       29.3208    0.3202   -6.3572 H         1 UNK         0.0770 
    107 H107       27.2466    1.8778   -4.7274 H         1 UNK         0.0814 
    108 H108       28.9764    2.1873   -4.7814 H         1 UNK         0.0814 
    109 H109       28.3779    0.7000   -4.0645 H         1 UNK         0.0814 
    110 H110       26.0673    1.5509   -7.1821 H         1 UNK         0.2983 
    111 H111       26.7884    3.7943   -8.7059 H         1 UNK         0.0947 
    112 H112       24.5192    3.4777   -9.7447 H         1 UNK         0.0806 
    113 H113       24.4667    3.2998   -7.9987 H         1 UNK         0.0806 
    114 H114       24.4186    1.8720   -9.0317 H         1 UNK         0.0806 
    115 H115       27.0993    0.4042   -9.5824 H         1 UNK         0.3000 
    116 H116       27.6871    1.0766  -12.4355 H         1 UNK         0.0850 
    117 H117       27.5235   -1.3797  -12.7807 H         1 UNK         0.0810 
    118 H118       26.0396   -0.7463  -12.0860 H         1 UNK         0.0810 
    119 H119       27.1823   -1.6241  -11.0728 H         1 UNK         0.0810 
    120 H120       28.9983   -0.6089   -9.5419 H         1 UNK         0.3040 
    121 H121       31.4985   -1.2831  -10.7523 H         1 UNK         0.0766 
    122 H122       30.4660   -2.5953   -8.9151 H         1 UNK         0.0812 
    123 H123       30.6392   -1.2366   -7.8089 H         1 UNK         0.0812 
    124 H124       32.0665   -2.0447   -8.4459 H         1 UNK         0.0812 
    125 H125       30.4625    1.6079   -9.0513 H         1 UNK         0.3205 
    126 H126       31.3484    3.5408   -8.5903 H         1 UNK         0.0754 
    127 H127       33.3202    4.4239   -9.7381 H         1 UNK         0.0769 
    128 H128       32.3745    3.4880  -10.8825 H         1 UNK         0.0769 
    129 H129       33.8516    2.8142  -10.1939 H         1 UNK         0.0769 
    130 H130       31.9992    1.0143   -6.9698 H         1 UNK         0.2981 
    131 H131       34.3466    1.8166   -5.4466 H         1 UNK         0.0541 
    132 H132       32.8759    2.9668   -2.3637 H         1 UNK         0.3459 
    133 H133       34.1465    1.9142   -2.9291 H         1 UNK         0.3459 
    134 H134       34.0172   -0.5444   -5.7664 H         1 UNK         0.0612 
    135 H135       33.9255   -0.1797   -4.0709 H         1 UNK         0.0612 
    136 H136       33.3405   -2.7510   -4.6112 H         1 UNK         0.0624 
    137 H137       32.6043   -2.7996   -6.1914 H         1 UNK         0.0624 
@<TRIPOS>BOND
     1    1    2 1    
     2    1   72 1    
     3    1   73 1    
     4    1   74 1    
     5    2    3 2    
     6    2    4 am   BACKBONE|DICT|INTERRES
     7    4    5 1    
     8    4   75 1    
     9    5    6 1    
    10    5   35 1    
    11    5   76 1    
    12    6    7 1    
    13    6   77 1    
    14    6   78 1    
    15    7    8 1    
    16    8    9 1    
    17    8   79 1    
    18    8   80 1    
    19    9   10 ar   
    20    9   14 ar   
    21   10   11 ar   
    22   10   81 1    
    23   11   12 ar   
    24   11   71 1    
    25   12   13 ar   
    26   12   82 1    
    27   13   14 ar   
    28   13   15 1    
    29   14   83 1    
    30   15   16 1    
    31   15   84 1    
    32   15   85 1    
    33   16   17 1    
    34   17   18 1    
    35   17   86 1    
    36   17   87 1    
    37   18   19 1    
    38   18   37 1    
    39   18   88 1    
    40   19   20 am   BACKBONE|DICT|INTERRES
    41   19   89 1    
    42   20   21 2    
    43   20   22 1    
    44   22   23 1    
    45   22   24 1    
    46   22   90 1    
    47   23   91 1    
    48   23   92 1    
    49   23   93 1    
    50   24   25 am   BACKBONE|DICT|INTERRES
    51   24   94 1    
    52   25   26 2    
    53   25   27 1    
    54   27   28 1    
    55   27   29 1    
    56   27   95 1    
    57   28   96 1    
    58   28   97 1    
    59   28   98 1    
    60   29   30 am   BACKBONE|DICT|INTERRES
    61   29   99 1    
    62   30   31 2    
    63   30   32 1    
    64   32   33 1    
    65   32   34 1    
    66   32  100 1    
    67   33  101 1    
    68   33  102 1    
    69   33  103 1    
    70   34   35 am   BACKBONE|DICT|INTERRES
    71   34  104 1    
    72   35   36 2    
    73   37   38 2    
    74   37   39 am   BACKBONE|DICT|INTERRES
    75   39   40 1    
    76   39  105 1    
    77   40   41 1    
    78   40   42 1    
    79   40  106 1    
    80   41  107 1    
    81   41  108 1    
    82   41  109 1    
    83   42   43 2    
    84   42   44 am   BACKBONE|DICT|INTERRES
    85   44   45 1    
    86   44  110 1    
    87   45   46 1    
    88   45   47 1    
    89   45  111 1    
    90   46  112 1    
    91   46  113 1    
    92   46  114 1    
    93   47   48 2    
    94   47   49 am   BACKBONE|DICT|INTERRES
    95   49   50 1    
    96   49  115 1    
    97   50   51 1    
    98   50   52 1    
    99   50  116 1    
   100   51  117 1    
   101   51  118 1    
   102   51  119 1    
   103   52   53 2    
   104   52   54 am   BACKBONE|DICT|INTERRES
   105   54   55 1    
   106   54  120 1    
   107   55   56 1    
   108   55   57 1    
   109   55  121 1    
   110   56  122 1    
   111   56  123 1    
   112   56  124 1    
   113   57   58 2    
   114   57   59 am   BACKBONE|DICT|INTERRES
   115   59   60 1    
   116   59  125 1    
   117   60   61 1    
   118   60   62 1    
   119   60  126 1    
   120   61  127 1    
   121   61  128 1    
   122   61  129 1    
   123   62   63 2    
   124   62   64 am   BACKBONE|DICT|INTERRES
   125   64   65 1    
   126   64  130 1    
   127   65   66 1    
   128   65   69 1    
   129   65  131 1    
   130   66   67 am   BACKBONE|DICT|INTERRES
   131   66   68 2    
   132   67  132 1    
   133   67  133 1    
   134   69   70 1    
   135   69  134 1    
   136   69  135 1    
   137   70   71 1    
   138   71  136 1    
   139   71  137 1    
@<TRIPOS>SUBSTRUCTURE
     1 UNK         1 GROUP             0       ****    0 ROOT    
