@<TRIPOS>MOLECULE
3R137
137   139    1
SMALL
USER_CHARGES


@<TRIPOS>ATOM
      1 CA         25.5448   -5.2587    2.0579 C.3       0 UNK        -0.2020 
      2 C          26.2603   -4.3200    1.0983 C.2       0 UNK         0.4855 
      3 O          26.6249   -3.2101    1.4855 O.2       0 UNK        -0.5197 
      4 N          26.4536   -4.7506   -0.1555 N.am      1 UNK        -0.4892 
      5 CA         27.1478   -3.9954   -1.2095 C.3       1 UNK         0.0835 
      6 C6         27.8783   -4.9350   -2.2045 C.3       12 UNK        -0.0855 
      7 S7         29.5060   -5.4306   -1.5491 S.3       12 UNK        -0.2931 
      8 C8         30.6427   -4.8133   -2.8458 C.3       12 UNK         0.0378 
      9 C9         30.7364   -3.2917   -3.0126 C.ar      12 UNK        -0.0802 
     10 C10        31.2370   -2.7889   -4.2185 C.ar      12 UNK        -0.0944 
     11 C11        31.4070   -1.4150   -4.4102 C.ar      12 UNK        -0.0787 
     12 C12        31.0573   -0.5318   -3.3875 C.ar      12 UNK        -0.0862 
     13 C13        30.5235   -1.0062   -2.1847 C.ar      12 UNK        -0.0733 
     14 C14        30.3906   -2.3880   -1.9976 C.ar      12 UNK        -0.0832 
     15 C15        30.1296   -0.0463   -1.0607 C.3       12 UNK         0.0240 
     16 S16        29.3346    1.5044   -1.6246 S.3       12 UNK        -0.2522 
     17 C17        27.8242    0.8851   -2.4370 C.3       12 UNK        -0.0967 
     18 CA         27.9221    0.9540   -3.9881 C.3       5 UNK         0.0660 
     19 N          27.5658   -0.3159   -4.6224 N.am      5 UNK        -0.4015 
     20 C          27.8064   -0.6265   -5.9032 C.2       4 UNK         0.4946 
     21 O          28.3814    0.1171   -6.6970 O.2       4 UNK        -0.5353 
     22 CA         27.2853   -1.9840   -6.3946 C.3       4 UNK         0.0277 
     23 CB         28.2658   -3.1066   -6.0271 C.3       4 UNK        -0.1981 
     24 N          25.9568   -2.2897   -5.8605 N.am      4 UNK        -0.4209 
     25 C          24.8349   -1.6548   -6.2268 C.2       3 UNK         0.4942 
     26 O          24.7997   -0.7523   -7.0627 O.2       3 UNK        -0.5208 
     27 CA         23.5376   -2.0771   -5.5176 C.3       3 UNK         0.0250 
     28 CB         22.9773   -3.3707   -6.1305 C.3       3 UNK        -0.1990 
     29 N          23.6981   -2.2439   -4.0701 N.am      3 UNK        -0.4232 
     30 C          24.0072   -1.2472   -3.2295 C.2       2 UNK         0.4993 
     31 O          24.2213   -0.0887   -3.5843 O.2       2 UNK        -0.5286 
     32 CA         24.1443   -1.6091   -1.7427 C.3       2 UNK         0.0209 
     33 CB         22.7633   -1.8402   -1.1074 C.3       2 UNK        -0.1931 
     34 N          25.0213   -2.7485   -1.4411 N.am      2 UNK        -0.4546 
     35 C          26.2576   -2.9544   -1.9210 C.2       1 UNK         0.5154 
     36 O          26.7283   -2.3327   -2.8728 O.2       1 UNK        -0.5181 
     37 C          27.1276    2.1369   -4.5790 C.2       5 UNK         0.5014 
     38 O          27.7094    3.1991   -4.8042 O.2       5 UNK        -0.5248 
     39 N          25.8292    1.9289   -4.8508 N.am      6 UNK        -0.4434 
     40 CA         24.9622    2.8918   -5.5343 C.3       6 UNK         0.0363 
     41 CB         23.4966    2.4399   -5.4342 C.3       6 UNK        -0.1936 
     42 C          25.3587    3.1119   -7.0037 C.2       6 UNK         0.5081 
     43 O          25.3425    4.2541   -7.4638 O.2       6 UNK        -0.5248 
     44 N          25.7090    2.0278   -7.7122 N.am      7 UNK        -0.4718 
     45 CA         26.1845    2.0706   -9.0978 C.3       7 UNK         0.0273 
     46 CB         26.2051    0.6501   -9.6852 C.3       7 UNK        -0.1935 
     47 C          27.5688    2.7232   -9.2370 C.2       7 UNK         0.5018 
     48 O          27.8014    3.4337  -10.2159 O.2       7 UNK        -0.5186 
     49 N          28.4667    2.4437   -8.2798 N.am      8 UNK        -0.4240 
     50 CA         29.8645    2.8817   -8.1519 C.3       8 UNK         0.0235 
     51 CB         29.9794    4.4155   -8.0716 C.3       8 UNK        -0.2000 
     52 C          30.8037    2.3010   -9.2231 C.2       8 UNK         0.4941 
     53 O          31.8832    1.8179   -8.8803 O.2       8 UNK        -0.5273 
     54 N          30.3625    2.3012  -10.4886 N.am      9 UNK        -0.4262 
     55 CA         31.0525    1.7517  -11.6616 C.3       9 UNK         0.0264 
     56 CB         30.2038    2.0222  -12.9140 C.3       9 UNK        -0.1955 
     57 C          31.3916    0.2533  -11.5565 C.2       9 UNK         0.5031 
     58 O          32.3259   -0.1984  -12.2192 O.2       9 UNK        -0.5390 
     59 N          30.6730   -0.4776  -10.6921 N.am      10 UNK        -0.4204 
     60 CA         30.9503   -1.8623  -10.3011 C.3       10 UNK         0.0237 
     61 CB         29.8476   -2.3316   -9.3387 C.3       10 UNK        -0.1985 
     62 C          32.3420   -2.0665   -9.6669 C.2       10 UNK         0.4970 
     63 O          32.8940   -3.1609   -9.7842 O.2       10 UNK        -0.4914 
     64 N          32.8860   -1.0181   -9.0344 N.am      11 UNK        -0.4285 
     65 CA         34.2611   -0.9620   -8.5187 C.3       11 UNK         0.1007 
     66 C          35.2912   -0.4283   -9.5601 C.2       11 UNK         0.5703 
     67 N          34.9163   -0.1226  -10.7975 N.am      11 UNK        -0.7361 
     68 O          36.4738   -0.3109   -9.2471 O.2       11 UNK        -0.4986 
     69 C69        34.3146   -0.1732   -7.1814 C.3       12 UNK        -0.0947 
     70 S70        33.7848   -1.1830   -5.7610 S.3       12 UNK        -0.2240 
     71 C71        31.9921   -0.8857   -5.7106 C.3       12 UNK         0.0194 
     72 H72        26.1860   -5.4823    2.9102 H         1 UNK         0.0906 
     73 H73        24.6335   -4.7920    2.4309 H         1 UNK         0.0906 
     74 H74        25.2735   -6.2010    1.5823 H         1 UNK         0.0906 
     75 H75        26.1309   -5.6720   -0.4178 H         1 UNK         0.3140 
     76 H76        27.9018   -3.3760   -0.7224 H         1 UNK         0.1085 
     77 H77        28.0382   -4.4658   -3.1740 H         1 UNK         0.0836 
     78 H78        27.2852   -5.8271   -2.4112 H         1 UNK         0.0836 
     79 H79        30.3522   -5.2681   -3.7944 H         1 UNK         0.0731 
     80 H80        31.6424   -5.1883   -2.6232 H         1 UNK         0.0731 
     81 H81        31.5234   -3.4711   -5.0075 H         1 UNK         0.1312 
     82 H82        31.2026    0.5299   -3.5299 H         1 UNK         0.1406 
     83 H83        30.0349   -2.7567   -1.0474 H         1 UNK         0.1631 
     84 H84        31.0277    0.2105   -0.4978 H         1 UNK         0.0717 
     85 H85        29.4566   -0.5398   -0.3576 H         1 UNK         0.0717 
     86 H86        27.6641   -0.1360   -2.0951 H         1 UNK         0.0934 
     87 H87        26.9673    1.4426   -2.0529 H         1 UNK         0.0934 
     88 H88        28.9620    1.1316   -4.2679 H         1 UNK         0.0739 
     89 H89        27.1323   -1.0192   -4.0257 H         1 UNK         0.3093 
     90 H90        27.2107   -1.9403   -7.4832 H         1 UNK         0.0818 
     91 H91        27.9170   -4.0773   -6.3790 H         1 UNK         0.0819 
     92 H92        29.2452   -2.9318   -6.4718 H         1 UNK         0.0819 
     93 H93        28.4133   -3.1665   -4.9504 H         1 UNK         0.0819 
     94 H94        25.9080   -2.9651   -5.1110 H         1 UNK         0.3041 
     95 H95        22.8058   -1.2823   -5.6787 H         1 UNK         0.0784 
     96 H96        22.8373   -3.2624   -7.2071 H         1 UNK         0.0793 
     97 H97        23.6451   -4.2185   -5.9723 H         1 UNK         0.0793 
     98 H98        22.0064   -3.6234   -5.7038 H         1 UNK         0.0793 
     99 H99        23.5605   -3.1693   -3.6905 H         1 UNK         0.3024 
    100 H100       24.5919   -0.7398   -1.2559 H         1 UNK         0.1171 
    101 H101       22.8358   -1.9331   -0.0235 H         1 UNK         0.0786 
    102 H102       22.0925   -1.0045   -1.3130 H         1 UNK         0.0786 
    103 H103       22.2864   -2.7434   -1.4898 H         1 UNK         0.0786 
    104 H104       24.7402   -3.3302   -0.6653 H         1 UNK         0.2977 
    105 H105       25.3944    1.0543   -4.5641 H         1 UNK         0.3127 
    106 H106       25.0565    3.8501   -5.0191 H         1 UNK         0.0770 
    107 H107       23.1729    2.3743   -4.3953 H         1 UNK         0.0814 
    108 H108       23.3435    1.4627   -5.8941 H         1 UNK         0.0814 
    109 H109       22.8340    3.1460   -5.9362 H         1 UNK         0.0814 
    110 H110       25.6258    1.1105   -7.2847 H         1 UNK         0.2983 
    111 H111       25.4791    2.6694   -9.6783 H         1 UNK         0.0947 
    112 H112       25.2102    0.2045   -9.6764 H         1 UNK         0.0806 
    113 H113       26.8701   -0.0093   -9.1264 H         1 UNK         0.0806 
    114 H114       26.5464    0.6588  -10.7213 H         1 UNK         0.0806 
    115 H115       28.1924    1.7528   -7.5832 H         1 UNK         0.3000 
    116 H116       30.2015    2.4794   -7.1948 H         1 UNK         0.0850 
    117 H117       29.6747    4.9004   -8.9994 H         1 UNK         0.0810 
    118 H118       31.0083    4.7170   -7.8715 H         1 UNK         0.0810 
    119 H119       29.3616    4.8136   -7.2663 H         1 UNK         0.0810 
    120 H120       29.4557    2.7356  -10.6497 H         1 UNK         0.3040 
    121 H121       31.9981    2.2883  -11.7620 H         1 UNK         0.0766 
    122 H122       30.6996    1.6487  -13.8113 H         1 UNK         0.0812 
    123 H123       30.0383    3.0901  -13.0582 H         1 UNK         0.0812 
    124 H124       29.2288    1.5370  -12.8528 H         1 UNK         0.0812 
    125 H125       29.9276   -0.0106  -10.1977 H         1 UNK         0.3205 
    126 H126       30.9097   -2.4760  -11.2032 H         1 UNK         0.0754 
    127 H127       30.0247   -3.3553   -9.0054 H         1 UNK         0.0769 
    128 H128       28.8677   -2.3130   -9.8164 H         1 UNK         0.0769 
    129 H129       29.7990   -1.6998   -8.4512 H         1 UNK         0.0769 
    130 H130       32.3843   -0.1361   -9.0103 H         1 UNK         0.2981 
    131 H131       34.5972   -1.9796   -8.3113 H         1 UNK         0.0541 
    132 H132       35.6122    0.2099  -11.4455 H         1 UNK         0.3459 
    133 H133       33.9591   -0.2383  -11.1112 H         1 UNK         0.3459 
    134 H134       35.3327    0.1453   -6.9510 H         1 UNK         0.0612 
    135 H135       33.7251    0.7432   -7.2339 H         1 UNK         0.0612 
    136 H136       31.5139   -1.3793   -6.5571 H         1 UNK         0.0624 
    137 H137       31.7910    0.1816   -5.8173 H         1 UNK         0.0624 
@<TRIPOS>BOND
     1    1    2 1    
     2    1   72 1    
     3    1   73 1    
     4    1   74 1    
     5    2    3 2    
     6    2    4 am   BACKBONE|DICT|INTERRES
     7    4    5 1    
     8    4   75 1    
     9    5    6 1    
    10    5   35 1    
    11    5   76 1    
    12    6    7 1    
    13    6   77 1    
    14    6   78 1    
    15    7    8 1    
    16    8    9 1    
    17    8   79 1    
    18    8   80 1    
    19    9   10 ar   
    20    9   14 ar   
    21   10   11 ar   
    22   10   81 1    
    23   11   12 ar   
    24   11   71 1    
    25   12   13 ar   
    26   12   82 1    
    27   13   14 ar   
    28   13   15 1    
    29   14   83 1    
    30   15   16 1    
    31   15   84 1    
    32   15   85 1    
    33   16   17 1    
    34   17   18 1    
    35   17   86 1    
    36   17   87 1    
    37   18   19 1    
    38   18   37 1    
    39   18   88 1    
    40   19   20 am   BACKBONE|DICT|INTERRES
    41   19   89 1    
    42   20   21 2    
    43   20   22 1    
    44   22   23 1    
    45   22   24 1    
    46   22   90 1    
    47   23   91 1    
    48   23   92 1    
    49   23   93 1    
    50   24   25 am   BACKBONE|DICT|INTERRES
    51   24   94 1    
    52   25   26 2    
    53   25   27 1    
    54   27   28 1    
    55   27   29 1    
    56   27   95 1    
    57   28   96 1    
    58   28   97 1    
    59   28   98 1    
    60   29   30 am   BACKBONE|DICT|INTERRES
    61   29   99 1    
    62   30   31 2    
    63   30   32 1    
    64   32   33 1    
    65   32   34 1    
    66   32  100 1    
    67   33  101 1    
    68   33  102 1    
    69   33  103 1    
    70   34   35 am   BACKBONE|DICT|INTERRES
    71   34  104 1    
    72   35   36 2    
    73   37   38 2    
    74   37   39 am   BACKBONE|DICT|INTERRES
    75   39   40 1    
    76   39  105 1    
    77   40   41 1    
    78   40   42 1    
    79   40  106 1    
    80   41  107 1    
    81   41  108 1    
    82   41  109 1    
    83   42   43 2    
    84   42   44 am   BACKBONE|DICT|INTERRES
    85   44   45 1    
    86   44  110 1    
    87   45   46 1    
    88   45   47 1    
    89   45  111 1    
    90   46  112 1    
    91   46  113 1    
    92   46  114 1    
    93   47   48 2    
    94   47   49 am   BACKBONE|DICT|INTERRES
    95   49   50 1    
    96   49  115 1    
    97   50   51 1    
    98   50   52 1    
    99   50  116 1    
   100   51  117 1    
   101   51  118 1    
   102   51  119 1    
   103   52   53 2    
   104   52   54 am   BACKBONE|DICT|INTERRES
   105   54   55 1    
   106   54  120 1    
   107   55   56 1    
   108   55   57 1    
   109   55  121 1    
   110   56  122 1    
   111   56  123 1    
   112   56  124 1    
   113   57   58 2    
   114   57   59 am   BACKBONE|DICT|INTERRES
   115   59   60 1    
   116   59  125 1    
   117   60   61 1    
   118   60   62 1    
   119   60  126 1    
   120   61  127 1    
   121   61  128 1    
   122   61  129 1    
   123   62   63 2    
   124   62   64 am   BACKBONE|DICT|INTERRES
   125   64   65 1    
   126   64  130 1    
   127   65   66 1    
   128   65   69 1    
   129   65  131 1    
   130   66   67 am   BACKBONE|DICT|INTERRES
   131   66   68 2    
   132   67  132 1    
   133   67  133 1    
   134   69   70 1    
   135   69  134 1    
   136   69  135 1    
   137   70   71 1    
   138   71  136 1    
   139   71  137 1    
@<TRIPOS>SUBSTRUCTURE
     1 UNK         1 GROUP             0       ****    0 ROOT    
