@<TRIPOS>MOLECULE
3R137
137   139    1
SMALL
USER_CHARGES


@<TRIPOS>ATOM
      1 CA         25.7512   -2.3527   -7.8863 C.3       0 UNK        -0.2020 
      2 C          25.9678   -3.5928   -7.0370 C.2       0 UNK         0.4855 
      3 O          25.3831   -4.6378   -7.3208 O.2       0 UNK        -0.5197 
      4 N          26.7840   -3.4807   -5.9801 N.am      1 UNK        -0.4892 
      5 CA         27.0540   -4.5600   -5.0145 C.3       1 UNK         0.0835 
      6 C6         28.3771   -4.3223   -4.2430 C.3       12 UNK        -0.0855 
      7 S7         29.8302   -4.4199   -5.3426 S.3       12 UNK        -0.2931 
      8 C8         31.1622   -3.8058   -4.2603 C.3       12 UNK         0.0378 
      9 C9         31.0918   -2.2958   -4.0938 C.ar      12 UNK        -0.0802 
     10 C10        31.4852   -1.4618   -5.1420 C.ar      12 UNK        -0.0944 
     11 C11        31.3660   -0.0738   -5.0333 C.ar      12 UNK        -0.0787 
     12 C12        30.8650    0.4803   -3.8492 C.ar      12 UNK        -0.0862 
     13 C13        30.4805   -0.3437   -2.7869 C.ar      12 UNK        -0.0733 
     14 C14        30.6111   -1.7311   -2.9102 C.ar      12 UNK        -0.0832 
     15 C15        29.8977    0.2570   -1.5134 C.3       12 UNK         0.0240 
     16 S16        28.2027    0.9012   -1.7381 S.3       12 UNK        -0.2522 
     17 C17        27.3111   -0.5333   -2.4481 C.3       12 UNK        -0.0967 
     18 CA         26.5562   -0.2730   -3.7815 C.3       5 UNK         0.0660 
     19 N          25.2836    0.4182   -3.5540 N.am      5 UNK        -0.4015 
     20 C          24.3320    0.6135   -4.4773 C.2       4 UNK         0.4946 
     21 O          24.4638    0.3273   -5.6686 O.2       4 UNK        -0.5353 
     22 CA         22.9889    1.1536   -3.9573 C.3       4 UNK         0.0277 
     23 CB         22.0112    1.5022   -5.0955 C.3       4 UNK        -0.1981 
     24 N          22.3777    0.1439   -3.0919 N.am      4 UNK        -0.4209 
     25 C          22.6253    0.0030   -1.7822 C.2       3 UNK         0.4942 
     26 O          23.2908    0.8021   -1.1225 O.2       3 UNK        -0.5208 
     27 CA         22.1099   -1.2890   -1.1233 C.3       3 UNK         0.0250 
     28 CB         20.6172   -1.1703   -0.7750 C.3       3 UNK        -0.1990 
     29 N          22.3331   -2.4711   -1.9660 N.am      3 UNK        -0.4232 
     30 C          23.5423   -2.9378   -2.3150 C.2       2 UNK         0.4993 
     31 O          24.5965   -2.4705   -1.8819 O.2       2 UNK        -0.5286 
     32 CA         23.5920   -4.1060   -3.3152 C.3       2 UNK         0.0209 
     33 CB         22.3830   -4.1372   -4.2737 C.3       2 UNK        -0.1931 
     34 N          24.8131   -4.0105   -4.1175 N.am      2 UNK        -0.4546 
     35 C          25.8712   -4.8293   -4.0489 C.2       1 UNK         0.5154 
     36 O          25.9352   -5.7866   -3.2752 O.2       1 UNK        -0.5181 
     37 C          27.4207    0.3952   -4.8734 C.2       5 UNK         0.5014 
     38 O          27.9843   -0.3020   -5.7200 O.2       5 UNK        -0.5248 
     39 N          27.4413    1.7380   -4.8539 N.am      6 UNK        -0.4434 
     40 CA         28.2158    2.6279   -5.7211 C.3       6 UNK         0.0363 
     41 CB         27.9659    4.0826   -5.2949 C.3       6 UNK        -0.1936 
     42 C          27.9536    2.4629   -7.2265 C.2       6 UNK         0.5081 
     43 O          28.8332    2.7910   -8.0231 O.2       6 UNK        -0.5248 
     44 N          26.7816    1.9267   -7.5991 N.am      7 UNK        -0.4718 
     45 CA         26.3902    1.6394   -8.9836 C.3       7 UNK         0.0273 
     46 CB         24.9135    1.2135   -9.0137 C.3       7 UNK        -0.1935 
     47 C          27.2832    0.6012   -9.6936 C.2       7 UNK         0.5018 
     48 O          27.2488    0.5264  -10.9221 O.2       7 UNK        -0.5186 
     49 N          28.0840   -0.1557   -8.9270 N.am      8 UNK        -0.4240 
     50 CA         29.1233   -1.0509   -9.4384 C.3       8 UNK         0.0235 
     51 CB         29.5840   -1.9832   -8.3079 C.3       8 UNK        -0.2000 
     52 C          30.3293   -0.3091  -10.0468 C.2       8 UNK         0.4941 
     53 O          31.0561   -0.9170  -10.8338 O.2       8 UNK        -0.5273 
     54 N          30.5341    0.9666   -9.6752 N.am      9 UNK        -0.4262 
     55 CA         31.5672    1.9145  -10.1251 C.3       9 UNK         0.0264 
     56 CB         31.4160    2.2281  -11.6257 C.3       9 UNK        -0.1955 
     57 C          33.0215    1.5321   -9.7875 C.2       9 UNK         0.5031 
     58 O          33.7740    2.3840   -9.3124 O.2       9 UNK        -0.5390 
     59 N          33.4019    0.2723  -10.0222 N.am      10 UNK        -0.4204 
     60 CA         34.7124   -0.3038   -9.7207 C.3       10 UNK         0.0237 
     61 CB         34.9436   -1.5166  -10.6414 C.3       10 UNK        -0.1985 
     62 C          34.8152   -0.6641   -8.2280 C.2       10 UNK         0.4970 
     63 O          34.8373   -1.8448   -7.8760 O.2       10 UNK        -0.4914 
     64 N          34.8300    0.3664   -7.3753 N.am      11 UNK        -0.4285 
     65 CA         34.8316    0.2412   -5.9086 C.3       11 UNK         0.1007 
     66 C          36.1849   -0.2222   -5.2932 C.2       11 UNK         0.5703 
     67 N          37.2822   -0.2554   -6.0406 N.am      11 UNK        -0.7361 
     68 O          36.2386   -0.5641   -4.1142 O.2       11 UNK        -0.4986 
     69 C69        34.3264    1.5374   -5.2163 C.3       12 UNK        -0.0947 
     70 S70        32.7480    2.2434   -5.8190 S.3       12 UNK        -0.2240 
     71 C71        31.7116    0.8007   -6.2318 C.3       12 UNK         0.0194 
     72 H72        26.1126   -1.4567   -7.3832 H         1 UNK         0.0906 
     73 H73        26.2682   -2.4523   -8.8401 H         1 UNK         0.0906 
     74 H74        24.6888   -2.2155   -8.0860 H         1 UNK         0.0906 
     75 H75        27.2877   -2.6154   -5.8267 H         1 UNK         0.3140 
     76 H76        27.1718   -5.4863   -5.5820 H         1 UNK         0.1085 
     77 H77        28.5139   -5.0679   -3.4571 H         1 UNK         0.0836 
     78 H78        28.3580   -3.3518   -3.7481 H         1 UNK         0.0836 
     79 H79        31.1144   -4.3117   -3.2947 H         1 UNK         0.0731 
     80 H80        32.1246   -4.0740   -4.6989 H         1 UNK         0.0731 
     81 H81        31.8518   -1.9030   -6.0590 H         1 UNK         0.1312 
     82 H82        30.7483    1.5515   -3.7616 H         1 UNK         0.1406 
     83 H83        30.3064   -2.3747   -2.0959 H         1 UNK         0.1631 
     84 H84        30.5404    1.0698   -1.1723 H         1 UNK         0.0717 
     85 H85        29.8890   -0.4804   -0.7092 H         1 UNK         0.0717 
     86 H86        26.6141   -0.8880   -1.6884 H         1 UNK         0.0934 
     87 H87        27.9977   -1.3641   -2.5866 H         1 UNK         0.0934 
     88 H88        26.2802   -1.2527   -4.1749 H         1 UNK         0.0739 
     89 H89        25.0690    0.6552   -2.5933 H         1 UNK         0.3093 
     90 H90        23.1870    2.0659   -3.3902 H         1 UNK         0.0818 
     91 H91        21.0789    1.9105   -4.7052 H         1 UNK         0.0819 
     92 H92        22.4404    2.2529   -5.7606 H         1 UNK         0.0819 
     93 H93        21.7668    0.6305   -5.7040 H         1 UNK         0.0819 
     94 H94        21.8473   -0.5791   -3.5555 H         1 UNK         0.3041 
     95 H95        22.6666   -1.4307   -0.1942 H         1 UNK         0.0784 
     96 H96        20.4345   -0.3047   -0.1365 H         1 UNK         0.0793 
     97 H97        19.9981   -1.0544   -1.6655 H         1 UNK         0.0793 
     98 H98        20.2656   -2.0488   -0.2336 H         1 UNK         0.0793 
     99 H99        21.5128   -2.9230   -2.3439 H         1 UNK         0.3024 
    100 H100       23.5934   -5.0275   -2.7286 H         1 UNK         0.1171 
    101 H101       22.2628   -3.1941   -4.8089 H         1 UNK         0.0786 
    102 H102       21.4529   -4.3444   -3.7433 H         1 UNK         0.0786 
    103 H103       22.4975   -4.9244   -5.0196 H         1 UNK         0.0786 
    104 H104       24.8662   -3.2357   -4.7616 H         1 UNK         0.2977 
    105 H105       26.9254    2.1872   -4.1115 H         1 UNK         0.3127 
    106 H106       29.2685    2.4070   -5.5482 H         1 UNK         0.0770 
    107 H107       26.9176    4.3620   -5.4072 H         1 UNK         0.0814 
    108 H108       28.5541    4.7733   -5.9012 H         1 UNK         0.0814 
    109 H109       28.2504    4.2472   -4.2554 H         1 UNK         0.0814 
    110 H110       26.1308    1.6438   -6.8769 H         1 UNK         0.2983 
    111 H111       26.4857    2.5690   -9.5489 H         1 UNK         0.0947 
    112 H112       24.5854    1.0033  -10.0326 H         1 UNK         0.0806 
    113 H113       24.2671    1.9993   -8.6223 H         1 UNK         0.0806 
    114 H114       24.7375    0.3158   -8.4221 H         1 UNK         0.0806 
    115 H115       28.0358   -0.0416   -7.9202 H         1 UNK         0.3000 
    116 H116       28.6889   -1.6632  -10.2314 H         1 UNK         0.0850 
    117 H117       29.9111   -1.4189   -7.4360 H         1 UNK         0.0810 
    118 H118       28.7833   -2.6486   -7.9886 H         1 UNK         0.0810 
    119 H119       30.4162   -2.6140   -8.6239 H         1 UNK         0.0810 
    120 H120       29.8681    1.3739   -9.0248 H         1 UNK         0.3040 
    121 H121       31.3608    2.8370   -9.5793 H         1 UNK         0.0766 
    122 H122       30.4155    2.5963  -11.8531 H         1 UNK         0.0812 
    123 H123       31.5991    1.3512  -12.2474 H         1 UNK         0.0812 
    124 H124       32.1233    2.9985  -11.9357 H         1 UNK         0.0812 
    125 H125       32.6894   -0.3565  -10.3932 H         1 UNK         0.3205 
    126 H126       35.4869    0.4346   -9.9388 H         1 UNK         0.0754 
    127 H127       34.9268   -1.2243  -11.6915 H         1 UNK         0.0769 
    128 H128       34.1830   -2.2853  -10.4969 H         1 UNK         0.0769 
    129 H129       35.9145   -1.9751  -10.4486 H         1 UNK         0.0769 
    130 H130       34.7483    1.3044   -7.7508 H         1 UNK         0.2981 
    131 H131       34.1307   -0.5547   -5.6572 H         1 UNK         0.0541 
    132 H132       37.2502    0.0238   -7.0076 H         1 UNK         0.3459 
    133 H133       38.1504   -0.5611   -5.6303 H         1 UNK         0.3459 
    134 H134       34.2046    1.3600   -4.1461 H         1 UNK         0.0612 
    135 H135       35.0796    2.3223   -5.3052 H         1 UNK         0.0612 
    136 H136       32.1900    0.2159   -7.0160 H         1 UNK         0.0624 
    137 H137       30.7830    1.1578   -6.6734 H         1 UNK         0.0624 
@<TRIPOS>BOND
     1    1    2 1    
     2    1   72 1    
     3    1   73 1    
     4    1   74 1    
     5    2    3 2    
     6    2    4 am   BACKBONE|DICT|INTERRES
     7    4    5 1    
     8    4   75 1    
     9    5    6 1    
    10    5   35 1    
    11    5   76 1    
    12    6    7 1    
    13    6   77 1    
    14    6   78 1    
    15    7    8 1    
    16    8    9 1    
    17    8   79 1    
    18    8   80 1    
    19    9   10 ar   
    20    9   14 ar   
    21   10   11 ar   
    22   10   81 1    
    23   11   12 ar   
    24   11   71 1    
    25   12   13 ar   
    26   12   82 1    
    27   13   14 ar   
    28   13   15 1    
    29   14   83 1    
    30   15   16 1    
    31   15   84 1    
    32   15   85 1    
    33   16   17 1    
    34   17   18 1    
    35   17   86 1    
    36   17   87 1    
    37   18   19 1    
    38   18   37 1    
    39   18   88 1    
    40   19   20 am   BACKBONE|DICT|INTERRES
    41   19   89 1    
    42   20   21 2    
    43   20   22 1    
    44   22   23 1    
    45   22   24 1    
    46   22   90 1    
    47   23   91 1    
    48   23   92 1    
    49   23   93 1    
    50   24   25 am   BACKBONE|DICT|INTERRES
    51   24   94 1    
    52   25   26 2    
    53   25   27 1    
    54   27   28 1    
    55   27   29 1    
    56   27   95 1    
    57   28   96 1    
    58   28   97 1    
    59   28   98 1    
    60   29   30 am   BACKBONE|DICT|INTERRES
    61   29   99 1    
    62   30   31 2    
    63   30   32 1    
    64   32   33 1    
    65   32   34 1    
    66   32  100 1    
    67   33  101 1    
    68   33  102 1    
    69   33  103 1    
    70   34   35 am   BACKBONE|DICT|INTERRES
    71   34  104 1    
    72   35   36 2    
    73   37   38 2    
    74   37   39 am   BACKBONE|DICT|INTERRES
    75   39   40 1    
    76   39  105 1    
    77   40   41 1    
    78   40   42 1    
    79   40  106 1    
    80   41  107 1    
    81   41  108 1    
    82   41  109 1    
    83   42   43 2    
    84   42   44 am   BACKBONE|DICT|INTERRES
    85   44   45 1    
    86   44  110 1    
    87   45   46 1    
    88   45   47 1    
    89   45  111 1    
    90   46  112 1    
    91   46  113 1    
    92   46  114 1    
    93   47   48 2    
    94   47   49 am   BACKBONE|DICT|INTERRES
    95   49   50 1    
    96   49  115 1    
    97   50   51 1    
    98   50   52 1    
    99   50  116 1    
   100   51  117 1    
   101   51  118 1    
   102   51  119 1    
   103   52   53 2    
   104   52   54 am   BACKBONE|DICT|INTERRES
   105   54   55 1    
   106   54  120 1    
   107   55   56 1    
   108   55   57 1    
   109   55  121 1    
   110   56  122 1    
   111   56  123 1    
   112   56  124 1    
   113   57   58 2    
   114   57   59 am   BACKBONE|DICT|INTERRES
   115   59   60 1    
   116   59  125 1    
   117   60   61 1    
   118   60   62 1    
   119   60  126 1    
   120   61  127 1    
   121   61  128 1    
   122   61  129 1    
   123   62   63 2    
   124   62   64 am   BACKBONE|DICT|INTERRES
   125   64   65 1    
   126   64  130 1    
   127   65   66 1    
   128   65   69 1    
   129   65  131 1    
   130   66   67 am   BACKBONE|DICT|INTERRES
   131   66   68 2    
   132   67  132 1    
   133   67  133 1    
   134   69   70 1    
   135   69  134 1    
   136   69  135 1    
   137   70   71 1    
   138   71  136 1    
   139   71  137 1    
@<TRIPOS>SUBSTRUCTURE
     1 UNK         1 GROUP             0       ****    0 ROOT    
