@<TRIPOS>MOLECULE
3R137
137   139    1
SMALL
USER_CHARGES


@<TRIPOS>ATOM
      1 CA         24.9918   -6.2610   -2.7354 C.3       0 UNK        -0.2020 
      2 C          25.6670   -4.9012   -2.6576 C.2       0 UNK         0.4855 
      3 O          25.5504   -4.1117   -3.5946 O.2       0 UNK        -0.5197 
      4 N          26.3513   -4.6147   -1.5404 N.am      1 UNK        -0.4892 
      5 CA         27.1297   -3.3929   -1.2714 C.3       1 UNK         0.0835 
      6 C6         28.4299   -3.2970   -2.1053 C.3       12 UNK        -0.0855 
      7 S7         29.5200   -4.7613   -1.9920 S.3       12 UNK        -0.2931 
      8 C8         31.1824   -4.0231   -1.8051 C.3       12 UNK         0.0378 
      9 C9         31.3891   -2.8047   -2.6974 C.ar      12 UNK        -0.0802 
     10 C10        31.3631   -2.9302   -4.0886 C.ar      12 UNK        -0.0944 
     11 C11        31.4720   -1.7996   -4.9073 C.ar      12 UNK        -0.0787 
     12 C12        31.6178   -0.5401   -4.3180 C.ar      12 UNK        -0.0862 
     13 C13        31.6178   -0.3988   -2.9274 C.ar      12 UNK        -0.0733 
     14 C14        31.5284   -1.5380   -2.1239 C.ar      12 UNK        -0.0832 
     15 C15        31.6628    0.9794   -2.2763 C.3       12 UNK         0.0240 
     16 S16        30.3750    2.1366   -2.8708 S.3       12 UNK        -0.2522 
     17 C17        28.8549    1.1247   -3.0234 C.3       12 UNK        -0.0967 
     18 CA         28.3756    1.0689   -4.4993 C.3       5 UNK         0.0660 
     19 N          27.6914   -0.1830   -4.8400 N.am      5 UNK        -0.4015 
     20 C          27.5741   -0.6244   -6.1035 C.2       4 UNK         0.4946 
     21 O          28.0843   -0.0600   -7.0750 O.2       4 UNK        -0.5353 
     22 CA         26.7291   -1.8841   -6.3489 C.3       4 UNK         0.0277 
     23 CB         27.5935   -3.1536   -6.2963 C.3       4 UNK        -0.1981 
     24 N          25.5763   -2.0181   -5.4525 N.am      4 UNK        -0.4209 
     25 C          24.5067   -1.2099   -5.4890 C.2       3 UNK         0.4942 
     26 O          24.4549   -0.1836   -6.1637 O.2       3 UNK        -0.5208 
     27 CA         23.2934   -1.6039   -4.6388 C.3       3 UNK         0.0250 
     28 CB         22.6582   -2.9111   -5.1440 C.3       3 UNK        -0.1990 
     29 N          23.6716   -1.7438   -3.2362 N.am      3 UNK        -0.4232 
     30 C          23.5479   -0.7749   -2.3183 C.2       2 UNK         0.4993 
     31 O          23.0327    0.3197   -2.5441 O.2       2 UNK        -0.5286 
     32 CA         24.0826   -1.0595   -0.9017 C.3       2 UNK         0.0209 
     33 CB         22.9226   -1.3803    0.0554 C.3       2 UNK        -0.1931 
     34 N          25.0699   -2.1409   -0.8344 N.am      2 UNK        -0.4546 
     35 C          26.2776   -2.1104   -1.4142 C.2       1 UNK         0.5154 
     36 O          26.6849   -1.1558   -2.0834 O.2       1 UNK        -0.5181 
     37 C          27.5226    2.2974   -4.8821 C.2       5 UNK         0.5014 
     38 O          28.0759    3.2909   -5.3536 O.2       5 UNK        -0.5248 
     39 N          26.1931    2.2023   -4.7166 N.am      6 UNK        -0.4434 
     40 CA         25.2346    3.2450   -5.1002 C.3       6 UNK         0.0363 
     41 CB         23.8606    2.9447   -4.4824 C.3       6 UNK        -0.1936 
     42 C          25.1236    3.4106   -6.6252 C.2       6 UNK         0.5081 
     43 O          25.0556    4.5399   -7.1103 O.2       6 UNK        -0.5248 
     44 N          25.1459    2.2862   -7.3541 N.am      7 UNK        -0.4718 
     45 CA         25.2066    2.2304   -8.8178 C.3       7 UNK         0.0273 
     46 CB         24.8712    0.8015   -9.2756 C.3       7 UNK        -0.1935 
     47 C          26.5688    2.6635   -9.3920 C.2       7 UNK         0.5018 
     48 O          26.6412    2.9641  -10.5842 O.2       7 UNK        -0.5186 
     49 N          27.6073    2.6786   -8.5423 N.am      8 UNK        -0.4240 
     50 CA         29.0064    3.0014   -8.8308 C.3       8 UNK         0.0235 
     51 CB         29.1613    4.4859   -9.2249 C.3       8 UNK        -0.2000 
     52 C          29.6213    2.0287   -9.8519 C.2       8 UNK         0.4941 
     53 O          30.1603    2.4596  -10.8747 O.2       8 UNK        -0.5273 
     54 N          29.5130    0.7254   -9.5565 N.am      9 UNK        -0.4262 
     55 CA         30.1236   -0.3539  -10.3376 C.3       9 UNK         0.0264 
     56 CB         29.5211   -1.6954   -9.8871 C.3       9 UNK        -0.1955 
     57 C          31.6629   -0.3574  -10.2303 C.2       9 UNK         0.5031 
     58 O          32.2283    0.3164   -9.3646 O.2       9 UNK        -0.5390 
     59 N          32.3134   -1.1368  -11.1077 N.am      10 UNK        -0.4204 
     60 CA         33.7717   -1.2144  -11.2998 C.3       10 UNK         0.0237 
     61 CB         34.0760   -2.2409  -12.4038 C.3       10 UNK        -0.1985 
     62 C          34.6117   -1.5199  -10.0426 C.2       10 UNK         0.4970 
     63 O          35.7918   -1.1684  -10.0115 O.2       10 UNK        -0.4914 
     64 N          33.9955   -2.1447   -9.0338 N.am      11 UNK        -0.4285 
     65 CA         34.5315   -2.3180   -7.6760 C.3       11 UNK         0.1007 
     66 C          34.7529   -1.0003   -6.8715 C.2       11 UNK         0.5703 
     67 N          34.1968    0.1377   -7.2719 N.am      11 UNK        -0.7361 
     68 O          35.4678   -1.0107   -5.8723 O.2       11 UNK        -0.4986 
     69 C69        33.7284   -3.3765   -6.8620 C.3       12 UNK        -0.0947 
     70 S70        31.9272   -3.4321   -7.1819 S.3       12 UNK        -0.2240 
     71 C71        31.3281   -1.8868   -6.4218 C.3       12 UNK         0.0194 
     72 H72        25.3788   -6.8201   -3.5868 H         1 UNK         0.0906 
     73 H73        25.1588   -6.8531   -1.8359 H         1 UNK         0.0906 
     74 H74        23.9173   -6.1384   -2.8684 H         1 UNK         0.0906 
     75 H75        26.3983   -5.3132   -0.8112 H         1 UNK         0.3140 
     76 H76        27.4209   -3.4389   -0.2206 H         1 UNK         0.1085 
     77 H77        28.1984   -3.1347   -3.1565 H         1 UNK         0.0836 
     78 H78        28.9786   -2.4145   -1.7782 H         1 UNK         0.0836 
     79 H79        31.9351   -4.7761   -2.0422 H         1 UNK         0.0731 
     80 H80        31.3307   -3.7627   -0.7559 H         1 UNK         0.0731 
     81 H81        31.2123   -3.9075   -4.5252 H         1 UNK         0.1312 
     82 H82        31.6776    0.3415   -4.9417 H         1 UNK         0.1406 
     83 H83        31.5200   -1.4350   -1.0471 H         1 UNK         0.1631 
     84 H84        32.6428    1.4229   -2.4565 H         1 UNK         0.0717 
     85 H85        31.5620    0.8946   -1.1932 H         1 UNK         0.0717 
     86 H86        29.0527    0.1203   -2.6492 H         1 UNK         0.0934 
     87 H87        28.0835    1.5254   -2.3625 H         1 UNK         0.0934 
     88 H88        29.2656    1.1050   -5.1320 H         1 UNK         0.0739 
     89 H89        27.2528   -0.6907   -4.0788 H         1 UNK         0.3093 
     90 H90        26.3321   -1.8060   -7.3633 H         1 UNK         0.0818 
     91 H91        28.1302   -3.2471   -5.3544 H         1 UNK         0.0819 
     92 H92        26.9911   -4.0525   -6.4291 H         1 UNK         0.0819 
     93 H93        28.3385   -3.1474   -7.0922 H         1 UNK         0.0819 
     94 H94        25.5629   -2.8290   -4.8333 H         1 UNK         0.3041 
     95 H95        22.5450   -0.8154   -4.7456 H         1 UNK         0.0784 
     96 H96        22.3726   -2.8238   -6.1932 H         1 UNK         0.0793 
     97 H97        23.3361   -3.7609   -5.0612 H         1 UNK         0.0793 
     98 H98        21.7552   -3.1513   -4.5826 H         1 UNK         0.0793 
     99 H99        24.1631   -2.5931   -2.9854 H         1 UNK         0.3024 
    100 H100       24.5697   -0.1436   -0.5588 H         1 UNK         0.1171 
    101 H101       22.1818   -0.5792    0.0539 H         1 UNK         0.0786 
    102 H102       23.2726   -1.4915    1.0818 H         1 UNK         0.0786 
    103 H103       22.4083   -2.2996   -0.2276 H         1 UNK         0.0786 
    104 H104       24.8006   -2.9755   -0.3329 H         1 UNK         0.2977 
    105 H105       25.8059    1.3410   -4.3592 H         1 UNK         0.3127 
    106 H106       25.5887    4.1934   -4.6903 H         1 UNK         0.0770 
    107 H107       23.4533    1.9971   -4.8366 H         1 UNK         0.0814 
    108 H108       23.1404    3.7234   -4.7368 H         1 UNK         0.0814 
    109 H109       23.9156    2.8985   -3.3947 H         1 UNK         0.0814 
    110 H110       25.0999    1.3911   -6.8694 H         1 UNK         0.2983 
    111 H111       24.4510    2.9100   -9.2177 H         1 UNK         0.0947 
    112 H112       24.8654    0.7292  -10.3640 H         1 UNK         0.0806 
    113 H113       23.8865    0.4925   -8.9245 H         1 UNK         0.0806 
    114 H114       25.6007    0.0808   -8.9039 H         1 UNK         0.0806 
    115 H115       27.4224    2.3829   -7.5932 H         1 UNK         0.3000 
    116 H116       29.5524    2.8512   -7.8978 H         1 UNK         0.0850 
    117 H117       30.2134    4.7494   -9.3395 H         1 UNK         0.0810 
    118 H118       28.7435    5.1423   -8.4615 H         1 UNK         0.0810 
    119 H119       28.6658    4.7112  -10.1697 H         1 UNK         0.0810 
    120 H120       29.0516    0.4596   -8.6894 H         1 UNK         0.3040 
    121 H121       29.8642   -0.1947  -11.3864 H         1 UNK         0.0766 
    122 H122       28.4369   -1.6989  -10.0017 H         1 UNK         0.0812 
    123 H123       29.7413   -1.9045   -8.8428 H         1 UNK         0.0812 
    124 H124       29.9087   -2.5281  -10.4749 H         1 UNK         0.0812 
    125 H125       31.7591   -1.6670  -11.7651 H         1 UNK         0.3205 
    126 H126       34.0922   -0.2324  -11.6535 H         1 UNK         0.0754 
    127 H127       35.1482   -2.3041  -12.5964 H         1 UNK         0.0769 
    128 H128       33.5981   -1.9680  -13.3449 H         1 UNK         0.0769 
    129 H129       33.7353   -3.2402  -12.1294 H         1 UNK         0.0769 
    130 H130       33.0244   -2.3946   -9.1447 H         1 UNK         0.2981 
    131 H131       35.5365   -2.7253   -7.8025 H         1 UNK         0.0541 
    132 H132       33.5761    0.1637   -8.0778 H         1 UNK         0.3459 
    133 H133       34.3693    0.9788   -6.7466 H         1 UNK         0.3459 
    134 H134       34.1079   -4.3663   -7.1192 H         1 UNK         0.0612 
    135 H135       33.8986   -3.2821   -5.7877 H         1 UNK         0.0612 
    136 H136       30.2676   -1.7920   -6.6435 H         1 UNK         0.0624 
    137 H137       31.8069   -1.0390   -6.9087 H         1 UNK         0.0624 
@<TRIPOS>BOND
     1    1    2 1    
     2    1   72 1    
     3    1   73 1    
     4    1   74 1    
     5    2    3 2    
     6    2    4 am   BACKBONE|DICT|INTERRES
     7    4    5 1    
     8    4   75 1    
     9    5    6 1    
    10    5   35 1    
    11    5   76 1    
    12    6    7 1    
    13    6   77 1    
    14    6   78 1    
    15    7    8 1    
    16    8    9 1    
    17    8   79 1    
    18    8   80 1    
    19    9   10 ar   
    20    9   14 ar   
    21   10   11 ar   
    22   10   81 1    
    23   11   12 ar   
    24   11   71 1    
    25   12   13 ar   
    26   12   82 1    
    27   13   14 ar   
    28   13   15 1    
    29   14   83 1    
    30   15   16 1    
    31   15   84 1    
    32   15   85 1    
    33   16   17 1    
    34   17   18 1    
    35   17   86 1    
    36   17   87 1    
    37   18   19 1    
    38   18   37 1    
    39   18   88 1    
    40   19   20 am   BACKBONE|DICT|INTERRES
    41   19   89 1    
    42   20   21 2    
    43   20   22 1    
    44   22   23 1    
    45   22   24 1    
    46   22   90 1    
    47   23   91 1    
    48   23   92 1    
    49   23   93 1    
    50   24   25 am   BACKBONE|DICT|INTERRES
    51   24   94 1    
    52   25   26 2    
    53   25   27 1    
    54   27   28 1    
    55   27   29 1    
    56   27   95 1    
    57   28   96 1    
    58   28   97 1    
    59   28   98 1    
    60   29   30 am   BACKBONE|DICT|INTERRES
    61   29   99 1    
    62   30   31 2    
    63   30   32 1    
    64   32   33 1    
    65   32   34 1    
    66   32  100 1    
    67   33  101 1    
    68   33  102 1    
    69   33  103 1    
    70   34   35 am   BACKBONE|DICT|INTERRES
    71   34  104 1    
    72   35   36 2    
    73   37   38 2    
    74   37   39 am   BACKBONE|DICT|INTERRES
    75   39   40 1    
    76   39  105 1    
    77   40   41 1    
    78   40   42 1    
    79   40  106 1    
    80   41  107 1    
    81   41  108 1    
    82   41  109 1    
    83   42   43 2    
    84   42   44 am   BACKBONE|DICT|INTERRES
    85   44   45 1    
    86   44  110 1    
    87   45   46 1    
    88   45   47 1    
    89   45  111 1    
    90   46  112 1    
    91   46  113 1    
    92   46  114 1    
    93   47   48 2    
    94   47   49 am   BACKBONE|DICT|INTERRES
    95   49   50 1    
    96   49  115 1    
    97   50   51 1    
    98   50   52 1    
    99   50  116 1    
   100   51  117 1    
   101   51  118 1    
   102   51  119 1    
   103   52   53 2    
   104   52   54 am   BACKBONE|DICT|INTERRES
   105   54   55 1    
   106   54  120 1    
   107   55   56 1    
   108   55   57 1    
   109   55  121 1    
   110   56  122 1    
   111   56  123 1    
   112   56  124 1    
   113   57   58 2    
   114   57   59 am   BACKBONE|DICT|INTERRES
   115   59   60 1    
   116   59  125 1    
   117   60   61 1    
   118   60   62 1    
   119   60  126 1    
   120   61  127 1    
   121   61  128 1    
   122   61  129 1    
   123   62   63 2    
   124   62   64 am   BACKBONE|DICT|INTERRES
   125   64   65 1    
   126   64  130 1    
   127   65   66 1    
   128   65   69 1    
   129   65  131 1    
   130   66   67 am   BACKBONE|DICT|INTERRES
   131   66   68 2    
   132   67  132 1    
   133   67  133 1    
   134   69   70 1    
   135   69  134 1    
   136   69  135 1    
   137   70   71 1    
   138   71  136 1    
   139   71  137 1    
@<TRIPOS>SUBSTRUCTURE
     1 UNK         1 GROUP             0       ****    0 ROOT    
