@<TRIPOS>MOLECULE
3R137
137   139    1
SMALL
USER_CHARGES


@<TRIPOS>ATOM
      1 CA         28.8213   -5.0033    2.3797 C.3       0 UNK        -0.2020 
      2 C          28.5170   -4.1218    1.1777 C.2       0 UNK         0.4855 
      3 O          28.0561   -4.6290    0.1548 O.2       0 UNK        -0.5197 
      4 N          28.7852   -2.8132    1.2959 N.am      1 UNK        -0.4892 
      5 CA         28.5427   -1.7704    0.2861 C.3       1 UNK         0.0835 
      6 C6         29.4272   -1.9098   -0.9878 C.3       12 UNK        -0.0855 
      7 S7         31.2164   -2.1057   -0.6539 S.3       12 UNK        -0.2931 
      8 C8         31.5171   -3.8686   -1.0373 C.3       12 UNK         0.0378 
      9 C9         31.2919   -4.1830   -2.5099 C.ar      12 UNK        -0.0802 
     10 C10        32.2974   -3.9330   -3.4468 C.ar      12 UNK        -0.0944 
     11 C11        32.0688   -4.1496   -4.8111 C.ar      12 UNK        -0.0787 
     12 C12        30.8319   -4.6514   -5.2262 C.ar      12 UNK        -0.0862 
     13 C13        29.8123   -4.8930   -4.2993 C.ar      12 UNK        -0.0733 
     14 C14        30.0642   -4.6926   -2.9409 C.ar      12 UNK        -0.0832 
     15 C15        28.4210   -5.3308   -4.7458 C.3       12 UNK         0.0240 
     16 S16        27.7623   -4.3793   -6.1597 S.3       12 UNK        -0.2522 
     17 C17        28.1360   -2.6436   -5.7217 C.3       12 UNK        -0.0967 
     18 CA         27.4599   -1.6822   -6.7250 C.3       5 UNK         0.0660 
     19 N          26.0073   -1.6349   -6.5427 N.am      5 UNK        -0.4015 
     20 C          25.1385   -1.2540   -7.4875 C.2       4 UNK         0.4946 
     21 O          25.4673   -0.9099   -8.6221 O.2       4 UNK        -0.5353 
     22 CA         23.6539   -1.2220   -7.0865 C.3       4 UNK         0.0277 
     23 CB         23.0380   -2.6276   -7.1755 C.3       4 UNK        -0.1981 
     24 N          23.4394   -0.6720   -5.7447 N.am      4 UNK        -0.4209 
     25 C          23.7002    0.5979   -5.4030 C.2       3 UNK         0.4942 
     26 O          24.1167    1.4444   -6.1905 O.2       3 UNK        -0.5208 
     27 CA         23.5071    0.9867   -3.9290 C.3       3 UNK         0.0250 
     28 CB         22.0575    1.4309   -3.6765 C.3       3 UNK        -0.1990 
     29 N          23.8729   -0.0649   -2.9750 N.am      3 UNK        -0.4232 
     30 C          25.0831   -0.6312   -2.8721 C.2       2 UNK         0.4993 
     31 O          26.0263   -0.4027   -3.6358 O.2       2 UNK        -0.5286 
     32 CA         25.2491   -1.6645   -1.7564 C.3       2 UNK         0.0209 
     33 CB         24.9040   -3.0713   -2.2758 C.3       2 UNK        -0.1931 
     34 N          26.6348   -1.6567   -1.2949 N.am      2 UNK        -0.4546 
     35 C          27.0254   -1.6645   -0.0136 C.2       1 UNK         0.5154 
     36 O          26.2352   -1.6068    0.9328 O.2       1 UNK        -0.5181 
     37 C          28.0884   -0.2743   -6.7051 C.2       5 UNK         0.5014 
     38 O          29.0817   -0.0550   -7.4012 O.2       5 UNK        -0.5248 
     39 N          27.4830    0.6639   -5.9616 N.am      6 UNK        -0.4434 
     40 CA         27.8116    2.0892   -6.0178 C.3       6 UNK         0.0363 
     41 CB         27.1455    2.8309   -4.8488 C.3       6 UNK        -0.1936 
     42 C          27.4243    2.7134   -7.3705 C.2       6 UNK         0.5081 
     43 O          28.2475    3.3967   -7.9787 O.2       6 UNK        -0.5248 
     44 N          26.2003    2.4331   -7.8451 N.am      7 UNK        -0.4718 
     45 CA         25.6753    2.8756   -9.1439 C.3       7 UNK         0.0273 
     46 CB         24.1849    2.5169   -9.2490 C.3       7 UNK        -0.1935 
     47 C          26.4495    2.3139  -10.3493 C.2       7 UNK         0.5018 
     48 O          26.5284    2.9841  -11.3791 O.2       7 UNK        -0.5186 
     49 N          27.0442    1.1233  -10.1884 N.am      8 UNK        -0.4240 
     50 CA         27.9688    0.5024  -11.1414 C.3       8 UNK         0.0235 
     51 CB         28.1419   -0.9833  -10.7825 C.3       8 UNK        -0.2000 
     52 C          29.3415    1.2015  -11.2341 C.2       8 UNK         0.4941 
     53 O          30.1527    0.7983  -12.0686 O.2       8 UNK        -0.5273 
     54 N          29.6029    2.2057  -10.3818 N.am      9 UNK        -0.4262 
     55 CA         30.7790    3.0843  -10.3127 C.3       9 UNK         0.0264 
     56 CB         30.9941    3.8515  -11.6318 C.3       9 UNK        -0.1955 
     57 C          32.0773    2.4048   -9.8483 C.2       9 UNK         0.5031 
     58 O          32.8456    3.0401   -9.1248 O.2       9 UNK        -0.5390 
     59 N          32.2903    1.1375  -10.2284 N.am      10 UNK        -0.4204 
     60 CA         33.4573    0.3079   -9.9008 C.3       10 UNK         0.0237 
     61 CB         33.2646   -1.0938  -10.5023 C.3       10 UNK        -0.1985 
     62 C          33.7688    0.2077   -8.3959 C.2       10 UNK         0.4970 
     63 O          34.9440    0.1743   -8.0288 O.2       10 UNK        -0.4914 
     64 N          32.7173    0.2018   -7.5699 N.am      11 UNK        -0.4285 
     65 CA         32.7737    0.3044   -6.1064 C.3       11 UNK         0.1007 
     66 C          31.8683    1.4622   -5.5936 C.2       11 UNK         0.5703 
     67 N          31.6943    2.5365   -6.3568 N.am      11 UNK        -0.7361 
     68 O          31.3337    1.4109   -4.4889 O.2       11 UNK        -0.4986 
     69 C69        32.5039   -1.0643   -5.4235 C.3       12 UNK        -0.0947 
     70 S70        33.9299   -2.1956   -5.5801 S.3       12 UNK        -0.2240 
     71 C71        33.1295   -3.8114   -5.8542 C.3       12 UNK         0.0194 
     72 H72        29.5381   -5.7766    2.1048 H         1 UNK         0.0906 
     73 H73        27.9106   -5.4906    2.7268 H         1 UNK         0.0906 
     74 H74        29.2390   -4.4339    3.2098 H         1 UNK         0.0906 
     75 H75        29.1457   -2.4697    2.1753 H         1 UNK         0.3140 
     76 H76        28.8108   -0.8258    0.7621 H         1 UNK         0.1085 
     77 H77        29.3223   -1.0202   -1.6119 H         1 UNK         0.0836 
     78 H78        29.0740   -2.7377   -1.5946 H         1 UNK         0.0836 
     79 H79        32.5447   -4.1149   -0.7661 H         1 UNK         0.0731 
     80 H80        30.8840   -4.4972   -0.4115 H         1 UNK         0.0731 
     81 H81        33.2458   -3.5328   -3.1158 H         1 UNK         0.1312 
     82 H82        30.6428   -4.8101   -6.2791 H         1 UNK         0.1406 
     83 H83        29.2851   -4.8927   -2.2170 H         1 UNK         0.1631 
     84 H84        27.7099   -5.2424   -3.9227 H         1 UNK         0.0717 
     85 H85        28.4516   -6.3872   -5.0151 H         1 UNK         0.0717 
     86 H86        27.8196   -2.4386   -4.6972 H         1 UNK         0.0934 
     87 H87        29.2189   -2.5115   -5.7433 H         1 UNK         0.0934 
     88 H88        27.6514   -2.0701   -7.7283 H         1 UNK         0.0739 
     89 H89        25.6617   -1.8604   -5.6218 H         1 UNK         0.3093 
     90 H90        23.1348   -0.5773   -7.7991 H         1 UNK         0.0818 
     91 H91        23.1727   -3.0483   -8.1731 H         1 UNK         0.0819 
     92 H92        23.4954   -3.3189   -6.4665 H         1 UNK         0.0819 
     93 H93        21.9660   -2.6042   -6.9787 H         1 UNK         0.0819 
     94 H94        23.0891   -1.2999   -5.0361 H         1 UNK         0.3041 
     95 H95        24.1597    1.8394   -3.7320 H         1 UNK         0.0784 
     96 H96        21.7691    2.2286   -4.3629 H         1 UNK         0.0793 
     97 H97        21.3517    0.6109   -3.8154 H         1 UNK         0.0793 
     98 H98        21.9304    1.8170   -2.6649 H         1 UNK         0.0793 
     99 H99        23.1554   -0.3359   -2.3173 H         1 UNK         0.3024 
    100 H100       24.5734   -1.4045   -0.9381 H         1 UNK         0.1171 
    101 H101       25.5437   -3.3634   -3.1100 H         1 UNK         0.0786 
    102 H102       25.0212   -3.8194   -1.4913 H         1 UNK         0.0786 
    103 H103       23.8703   -3.1232   -2.6201 H         1 UNK         0.0786 
    104 H104       27.3261   -1.6119   -2.0304 H         1 UNK         0.2977 
    105 H105       26.7298    0.3855   -5.3401 H         1 UNK         0.3127 
    106 H106       28.8921    2.1862   -5.9028 H         1 UNK         0.0770 
    107 H107       27.4457    3.8793   -4.8348 H         1 UNK         0.0814 
    108 H108       26.0586    2.8061   -4.9170 H         1 UNK         0.0814 
    109 H109       27.4316    2.3974   -3.8902 H         1 UNK         0.0814 
    110 H110       25.5544    1.9104   -7.2558 H         1 UNK         0.2983 
    111 H111       25.7678    3.9632   -9.1804 H         1 UNK         0.0947 
    112 H112       24.0250    1.4403   -9.1818 H         1 UNK         0.0806 
    113 H113       23.7669    2.8515  -10.1994 H         1 UNK         0.0806 
    114 H114       23.6062    2.9912   -8.4563 H         1 UNK         0.0806 
    115 H115       26.8451    0.6041   -9.3409 H         1 UNK         0.3000 
    116 H116       27.5152    0.5610  -12.1329 H         1 UNK         0.0850 
    117 H117       28.7523   -1.4974  -11.5261 H         1 UNK         0.0810 
    118 H118       27.1819   -1.4984  -10.7428 H         1 UNK         0.0810 
    119 H119       28.6323   -1.1103   -9.8178 H         1 UNK         0.0810 
    120 H120       28.8988    2.4177   -9.6816 H         1 UNK         0.3040 
    121 H121       30.5334    3.8228   -9.5476 H         1 UNK         0.0766 
    122 H122       31.2703    3.1884  -12.4520 H         1 UNK         0.0812 
    123 H123       31.7945    4.5852  -11.5272 H         1 UNK         0.0812 
    124 H124       30.0948    4.3929  -11.9258 H         1 UNK         0.0812 
    125 H125       31.6049    0.7414  -10.8677 H         1 UNK         0.3205 
    126 H126       34.3221    0.7710  -10.3798 H         1 UNK         0.0754 
    127 H127       34.1261   -1.7304  -10.2951 H         1 UNK         0.0769 
    128 H128       33.1494   -1.0487  -11.5855 H         1 UNK         0.0769 
    129 H129       32.3846   -1.5908  -10.0917 H         1 UNK         0.0769 
    130 H130       31.7878    0.2508   -7.9643 H         1 UNK         0.2981 
    131 H131       33.7738    0.6237   -5.8080 H         1 UNK         0.0541 
    132 H132       31.1208    3.2907   -6.0167 H         1 UNK         0.3459 
    133 H133       32.1725    2.6288   -7.2455 H         1 UNK         0.3459 
    134 H134       31.6060   -1.5241   -5.8395 H         1 UNK         0.0612 
    135 H135       32.3203   -0.9474   -4.3541 H         1 UNK         0.0612 
    136 H136       33.8939   -4.5892   -5.8465 H         1 UNK         0.0624 
    137 H137       32.6975   -3.8084   -6.8562 H         1 UNK         0.0624 
@<TRIPOS>BOND
     1    1    2 1    
     2    1   72 1    
     3    1   73 1    
     4    1   74 1    
     5    2    3 2    
     6    2    4 am   BACKBONE|DICT|INTERRES
     7    4    5 1    
     8    4   75 1    
     9    5    6 1    
    10    5   35 1    
    11    5   76 1    
    12    6    7 1    
    13    6   77 1    
    14    6   78 1    
    15    7    8 1    
    16    8    9 1    
    17    8   79 1    
    18    8   80 1    
    19    9   10 ar   
    20    9   14 ar   
    21   10   11 ar   
    22   10   81 1    
    23   11   12 ar   
    24   11   71 1    
    25   12   13 ar   
    26   12   82 1    
    27   13   14 ar   
    28   13   15 1    
    29   14   83 1    
    30   15   16 1    
    31   15   84 1    
    32   15   85 1    
    33   16   17 1    
    34   17   18 1    
    35   17   86 1    
    36   17   87 1    
    37   18   19 1    
    38   18   37 1    
    39   18   88 1    
    40   19   20 am   BACKBONE|DICT|INTERRES
    41   19   89 1    
    42   20   21 2    
    43   20   22 1    
    44   22   23 1    
    45   22   24 1    
    46   22   90 1    
    47   23   91 1    
    48   23   92 1    
    49   23   93 1    
    50   24   25 am   BACKBONE|DICT|INTERRES
    51   24   94 1    
    52   25   26 2    
    53   25   27 1    
    54   27   28 1    
    55   27   29 1    
    56   27   95 1    
    57   28   96 1    
    58   28   97 1    
    59   28   98 1    
    60   29   30 am   BACKBONE|DICT|INTERRES
    61   29   99 1    
    62   30   31 2    
    63   30   32 1    
    64   32   33 1    
    65   32   34 1    
    66   32  100 1    
    67   33  101 1    
    68   33  102 1    
    69   33  103 1    
    70   34   35 am   BACKBONE|DICT|INTERRES
    71   34  104 1    
    72   35   36 2    
    73   37   38 2    
    74   37   39 am   BACKBONE|DICT|INTERRES
    75   39   40 1    
    76   39  105 1    
    77   40   41 1    
    78   40   42 1    
    79   40  106 1    
    80   41  107 1    
    81   41  108 1    
    82   41  109 1    
    83   42   43 2    
    84   42   44 am   BACKBONE|DICT|INTERRES
    85   44   45 1    
    86   44  110 1    
    87   45   46 1    
    88   45   47 1    
    89   45  111 1    
    90   46  112 1    
    91   46  113 1    
    92   46  114 1    
    93   47   48 2    
    94   47   49 am   BACKBONE|DICT|INTERRES
    95   49   50 1    
    96   49  115 1    
    97   50   51 1    
    98   50   52 1    
    99   50  116 1    
   100   51  117 1    
   101   51  118 1    
   102   51  119 1    
   103   52   53 2    
   104   52   54 am   BACKBONE|DICT|INTERRES
   105   54   55 1    
   106   54  120 1    
   107   55   56 1    
   108   55   57 1    
   109   55  121 1    
   110   56  122 1    
   111   56  123 1    
   112   56  124 1    
   113   57   58 2    
   114   57   59 am   BACKBONE|DICT|INTERRES
   115   59   60 1    
   116   59  125 1    
   117   60   61 1    
   118   60   62 1    
   119   60  126 1    
   120   61  127 1    
   121   61  128 1    
   122   61  129 1    
   123   62   63 2    
   124   62   64 am   BACKBONE|DICT|INTERRES
   125   64   65 1    
   126   64  130 1    
   127   65   66 1    
   128   65   69 1    
   129   65  131 1    
   130   66   67 am   BACKBONE|DICT|INTERRES
   131   66   68 2    
   132   67  132 1    
   133   67  133 1    
   134   69   70 1    
   135   69  134 1    
   136   69  135 1    
   137   70   71 1    
   138   71  136 1    
   139   71  137 1    
@<TRIPOS>SUBSTRUCTURE
     1 UNK         1 GROUP             0       ****    0 ROOT    
