@<TRIPOS>MOLECULE
3R137
137   139    1
SMALL
USER_CHARGES


@<TRIPOS>ATOM
      1 CA         25.6206   -4.8907   -4.2799 C.3       0 UNK        -0.2020 
      2 C          25.8188   -4.2832   -2.8998 C.2       0 UNK         0.4855 
      3 O          25.7246   -5.0045   -1.9061 O.2       0 UNK        -0.5197 
      4 N          26.0870   -2.9744   -2.8301 N.am      1 UNK        -0.4892 
      5 CA         26.2875   -2.2261   -1.5879 C.3       1 UNK         0.0835 
      6 C6         27.7844   -1.9412   -1.2984 C.3       12 UNK        -0.0855 
      7 S7         28.6458   -3.3981   -0.6224 S.3       12 UNK        -0.2931 
      8 C8         30.3971   -2.9244   -0.8287 C.3       12 UNK         0.0378 
      9 C9         30.8578   -2.8973   -2.2835 C.ar      12 UNK        -0.0802 
     10 C10        31.6481   -1.8393   -2.7461 C.ar      12 UNK        -0.0944 
     11 C11        32.0784   -1.8025   -4.0759 C.ar      12 UNK        -0.0787 
     12 C12        31.7362   -2.8454   -4.9384 C.ar      12 UNK        -0.0862 
     13 C13        30.9540   -3.9128   -4.4901 C.ar      12 UNK        -0.0733 
     14 C14        30.5235   -3.9352   -3.1609 C.ar      12 UNK        -0.0832 
     15 C15        30.5772   -5.0492   -5.4317 C.3       12 UNK         0.0240 
     16 S16        29.8878   -4.4660   -7.0140 S.3       12 UNK        -0.2522 
     17 C17        28.3954   -3.5687   -6.4736 C.3       12 UNK        -0.0967 
     18 CA         28.1401   -2.3108   -7.3474 C.3       5 UNK         0.0660 
     19 N          26.7151   -2.0476   -7.5718 N.am      5 UNK        -0.4015 
     20 C          25.7893   -1.7275   -6.6592 C.2       4 UNK         0.4946 
     21 O          26.0474   -1.5316   -5.4686 O.2       4 UNK        -0.5353 
     22 CA         24.3472   -1.6239   -7.1995 C.3       4 UNK         0.0277 
     23 CB         23.8200   -3.0008   -7.6587 C.3       4 UNK        -0.1981 
     24 N          23.3999   -0.9834   -6.2760 N.am      4 UNK        -0.4209 
     25 C          22.9758   -1.4246   -5.0839 C.2       3 UNK         0.4942 
     26 O          23.2660   -2.5150   -4.5854 O.2       3 UNK        -0.5208 
     27 CA         22.0539   -0.4802   -4.3077 C.3       3 UNK         0.0250 
     28 CB         20.5934   -0.9590   -4.3550 C.3       3 UNK        -0.1990 
     29 N          22.5310   -0.4801   -2.9330 N.am      3 UNK        -0.4232 
     30 C          22.7510    0.6039   -2.1828 C.2       2 UNK         0.4993 
     31 O          22.3835    1.7394   -2.4875 O.2       2 UNK        -0.5286 
     32 CA         23.5402    0.3906   -0.8771 C.3       2 UNK         0.0209 
     33 CB         22.5811    0.2763    0.3194 C.3       2 UNK        -0.1931 
     34 N          24.4296   -0.7800   -0.8991 N.am      2 UNK        -0.4546 
     35 C          25.4838   -0.9252   -1.7165 C.2       1 UNK         0.5154 
     36 O          25.8212   -0.0853   -2.5516 O.2       1 UNK        -0.5181 
     37 C          28.9165   -1.0531   -6.8995 C.2       5 UNK         0.5014 
     38 O          29.6253   -0.4663   -7.7191 O.2       5 UNK        -0.5248 
     39 N          28.7256   -0.6037   -5.6511 N.am      6 UNK        -0.4434 
     40 CA         29.2562    0.6738   -5.1619 C.3       6 UNK         0.0363 
     41 CB         29.1606    0.7593   -3.6333 C.3       6 UNK        -0.1936 
     42 C          28.5309    1.8593   -5.8096 C.2       6 UNK         0.5081 
     43 O          29.1854    2.7943   -6.2679 O.2       6 UNK        -0.5248 
     44 N          27.1967    1.7625   -5.9091 N.am      7 UNK        -0.4718 
     45 CA         26.3455    2.7376   -6.6013 C.3       7 UNK         0.0273 
     46 CB         24.8733    2.4383   -6.2820 C.3       7 UNK        -0.1935 
     47 C          26.5734    2.7696   -8.1256 C.2       7 UNK         0.5018 
     48 O          26.3044    3.7917   -8.7561 O.2       7 UNK        -0.5186 
     49 N          27.0826    1.6604   -8.6801 N.am      8 UNK        -0.4240 
     50 CA         27.5031    1.5309  -10.0769 C.3       8 UNK         0.0235 
     51 CB         27.3202    0.0676  -10.5157 C.3       8 UNK        -0.2000 
     52 C          28.9578    1.9865  -10.3103 C.2       8 UNK         0.4941 
     53 O          29.3836    2.0214  -11.4653 O.2       8 UNK        -0.5273 
     54 N          29.6918    2.3100   -9.2321 N.am      9 UNK        -0.4262 
     55 CA         31.1044    2.7016   -9.1950 C.3       9 UNK         0.0264 
     56 CB         31.3120    4.0756   -9.8678 C.3       9 UNK        -0.1955 
     57 C          32.0483    1.6095   -9.7370 C.2       9 UNK         0.5031 
     58 O          32.9638    1.9139  -10.5044 O.2       9 UNK        -0.5390 
     59 N          31.8147    0.3528   -9.3276 N.am      10 UNK        -0.4204 
     60 CA         32.6374   -0.8035   -9.7018 C.3       10 UNK         0.0237 
     61 CB         31.9043   -2.0997   -9.3209 C.3       10 UNK        -0.1985 
     62 C          34.0483   -0.7811   -9.0837 C.2       10 UNK         0.4970 
     63 O          34.9758   -1.3194   -9.6896 O.2       10 UNK        -0.4914 
     64 N          34.1864   -0.1669   -7.9018 N.am      11 UNK        -0.4285 
     65 CA         35.4693    0.0642   -7.2242 C.3       11 UNK         0.1007 
     66 C          36.2590    1.2118   -7.9068 C.2       11 UNK         0.5703 
     67 N          37.5438    1.0166   -8.1710 N.am      11 UNK        -0.7361 
     68 O          35.7256    2.2913   -8.1554 O.2       11 UNK        -0.4986 
     69 C69        35.2747    0.3554   -5.7134 C.3       12 UNK        -0.0947 
     70 S70        34.6396   -1.0932   -4.8084 S.3       12 UNK        -0.2240 
     71 C71        32.8949   -0.6334   -4.5996 C.3       12 UNK         0.0194 
     72 H72        26.4363   -5.5749   -4.5118 H         1 UNK         0.0906 
     73 H73        25.5795   -4.1291   -5.0546 H         1 UNK         0.0906 
     74 H74        24.6842   -5.4468   -4.3132 H         1 UNK         0.0906 
     75 H75        26.0587   -2.4062   -3.6758 H         1 UNK         0.3140 
     76 H76        25.8754   -2.7830   -0.7433 H         1 UNK         0.1085 
     77 H77        27.8997   -1.1313   -0.5749 H         1 UNK         0.0836 
     78 H78        28.2873   -1.6168   -2.2093 H         1 UNK         0.0836 
     79 H79        30.5547   -1.9549   -0.3534 H         1 UNK         0.0731 
     80 H80        31.0170   -3.6384   -0.2850 H         1 UNK         0.0731 
     81 H81        31.9186   -1.0355   -2.0749 H         1 UNK         0.1312 
     82 H82        32.0770   -2.8222   -5.9639 H         1 UNK         0.1406 
     83 H83        29.9230   -4.7614   -2.8051 H         1 UNK         0.1631 
     84 H84        29.8541   -5.7199   -4.9646 H         1 UNK         0.0717 
     85 H85        31.4673   -5.6458   -5.6349 H         1 UNK         0.0717 
     86 H86        27.5682   -4.2717   -6.5801 H         1 UNK         0.0934 
     87 H87        28.4369   -3.3272   -5.4103 H         1 UNK         0.0934 
     88 H88        28.5091   -2.5352   -8.3500 H         1 UNK         0.0739 
     89 H89        26.4098   -2.1793   -8.5255 H         1 UNK         0.3093 
     90 H90        24.3867   -0.9723   -8.0740 H         1 UNK         0.0818 
     91 H91        24.4253   -3.4128   -8.4666 H         1 UNK         0.0819 
     92 H92        23.8254   -3.7318   -6.8497 H         1 UNK         0.0819 
     93 H93        22.7986   -2.9279   -8.0322 H         1 UNK         0.0819 
     94 H94        23.0734   -0.0744   -6.5705 H         1 UNK         0.3041 
     95 H95        22.1214    0.5233   -4.7344 H         1 UNK         0.0784 
     96 H96        20.2210   -0.9743   -5.3801 H         1 UNK         0.0793 
     97 H97        20.4856   -1.9670   -3.9520 H         1 UNK         0.0793 
     98 H98        19.9430   -0.2983   -3.7816 H         1 UNK         0.0793 
     99 H99        22.9173   -1.3646   -2.6292 H         1 UNK         0.3024 
    100 H100       24.1636    1.2766   -0.7358 H         1 UNK         0.1171 
    101 H101       23.1258    0.2217    1.2622 H         1 UNK         0.0786 
    102 H102       21.9247    1.1459    0.3775 H         1 UNK         0.0786 
    103 H103       21.9453   -0.6068    0.2449 H         1 UNK         0.0786 
    104 H104       24.2148   -1.5185   -0.2438 H         1 UNK         0.2977 
    105 H105       28.0264   -1.0699   -5.0837 H         1 UNK         0.3127 
    106 H106       30.3102    0.7360   -5.4382 H         1 UNK         0.0770 
    107 H107       29.5895    1.6937   -3.2694 H         1 UNK         0.0814 
    108 H108       28.1289    0.7214   -3.2880 H         1 UNK         0.0814 
    109 H109       29.7059   -0.0498   -3.1556 H         1 UNK         0.0814 
    110 H110       26.7378    0.9642   -5.4884 H         1 UNK         0.2983 
    111 H111       26.5876    3.7298   -6.2136 H         1 UNK         0.0947 
    112 H112       24.5656    1.4787   -6.6929 H         1 UNK         0.0806 
    113 H113       24.2199    3.2002   -6.7097 H         1 UNK         0.0806 
    114 H114       24.6909    2.4211   -5.2068 H         1 UNK         0.0806 
    115 H115       27.2958    0.8854   -8.0709 H         1 UNK         0.3000 
    116 H116       26.8624    2.1561  -10.7028 H         1 UNK         0.0850 
    117 H117       27.5384   -0.0487  -11.5782 H         1 UNK         0.0810 
    118 H118       26.2958   -0.2708  -10.3602 H         1 UNK         0.0810 
    119 H119       27.9891   -0.6028   -9.9761 H         1 UNK         0.0810 
    120 H120       29.2490    2.2603   -8.3221 H         1 UNK         0.3040 
    121 H121       31.3562    2.8162   -8.1396 H         1 UNK         0.0766 
    122 H122       31.1234    4.0349  -10.9409 H         1 UNK         0.0812 
    123 H123       32.3360    4.4257   -9.7315 H         1 UNK         0.0812 
    124 H124       30.6528    4.8302   -9.4389 H         1 UNK         0.0812 
    125 H125       31.0108    0.1648   -8.7279 H         1 UNK         0.3205 
    126 H126       32.7566   -0.7897  -10.7872 H         1 UNK         0.0754 
    127 H127       32.4739   -2.9780   -9.6275 H         1 UNK         0.0769 
    128 H128       30.9285   -2.1611   -9.8032 H         1 UNK         0.0769 
    129 H129       31.7486   -2.1718   -8.2445 H         1 UNK         0.0769 
    130 H130       33.3804    0.2817   -7.4974 H         1 UNK         0.2981 
    131 H131       36.0607   -0.8500   -7.3112 H         1 UNK         0.0541 
    132 H132       37.9921    0.1383   -7.9605 H         1 UNK         0.3459 
    133 H133       38.0740    1.7595   -8.5989 H         1 UNK         0.3459 
    134 H134       34.6166    1.2128   -5.5599 H         1 UNK         0.0612 
    135 H135       36.2285    0.6209   -5.2533 H         1 UNK         0.0612 
    136 H136       32.8228    0.2234   -3.9280 H         1 UNK         0.0624 
    137 H137       32.4855   -0.3149   -5.5587 H         1 UNK         0.0624 
@<TRIPOS>BOND
     1    1    2 1    
     2    1   72 1    
     3    1   73 1    
     4    1   74 1    
     5    2    3 2    
     6    2    4 am   BACKBONE|DICT|INTERRES
     7    4    5 1    
     8    4   75 1    
     9    5    6 1    
    10    5   35 1    
    11    5   76 1    
    12    6    7 1    
    13    6   77 1    
    14    6   78 1    
    15    7    8 1    
    16    8    9 1    
    17    8   79 1    
    18    8   80 1    
    19    9   10 ar   
    20    9   14 ar   
    21   10   11 ar   
    22   10   81 1    
    23   11   12 ar   
    24   11   71 1    
    25   12   13 ar   
    26   12   82 1    
    27   13   14 ar   
    28   13   15 1    
    29   14   83 1    
    30   15   16 1    
    31   15   84 1    
    32   15   85 1    
    33   16   17 1    
    34   17   18 1    
    35   17   86 1    
    36   17   87 1    
    37   18   19 1    
    38   18   37 1    
    39   18   88 1    
    40   19   20 am   BACKBONE|DICT|INTERRES
    41   19   89 1    
    42   20   21 2    
    43   20   22 1    
    44   22   23 1    
    45   22   24 1    
    46   22   90 1    
    47   23   91 1    
    48   23   92 1    
    49   23   93 1    
    50   24   25 am   BACKBONE|DICT|INTERRES
    51   24   94 1    
    52   25   26 2    
    53   25   27 1    
    54   27   28 1    
    55   27   29 1    
    56   27   95 1    
    57   28   96 1    
    58   28   97 1    
    59   28   98 1    
    60   29   30 am   BACKBONE|DICT|INTERRES
    61   29   99 1    
    62   30   31 2    
    63   30   32 1    
    64   32   33 1    
    65   32   34 1    
    66   32  100 1    
    67   33  101 1    
    68   33  102 1    
    69   33  103 1    
    70   34   35 am   BACKBONE|DICT|INTERRES
    71   34  104 1    
    72   35   36 2    
    73   37   38 2    
    74   37   39 am   BACKBONE|DICT|INTERRES
    75   39   40 1    
    76   39  105 1    
    77   40   41 1    
    78   40   42 1    
    79   40  106 1    
    80   41  107 1    
    81   41  108 1    
    82   41  109 1    
    83   42   43 2    
    84   42   44 am   BACKBONE|DICT|INTERRES
    85   44   45 1    
    86   44  110 1    
    87   45   46 1    
    88   45   47 1    
    89   45  111 1    
    90   46  112 1    
    91   46  113 1    
    92   46  114 1    
    93   47   48 2    
    94   47   49 am   BACKBONE|DICT|INTERRES
    95   49   50 1    
    96   49  115 1    
    97   50   51 1    
    98   50   52 1    
    99   50  116 1    
   100   51  117 1    
   101   51  118 1    
   102   51  119 1    
   103   52   53 2    
   104   52   54 am   BACKBONE|DICT|INTERRES
   105   54   55 1    
   106   54  120 1    
   107   55   56 1    
   108   55   57 1    
   109   55  121 1    
   110   56  122 1    
   111   56  123 1    
   112   56  124 1    
   113   57   58 2    
   114   57   59 am   BACKBONE|DICT|INTERRES
   115   59   60 1    
   116   59  125 1    
   117   60   61 1    
   118   60   62 1    
   119   60  126 1    
   120   61  127 1    
   121   61  128 1    
   122   61  129 1    
   123   62   63 2    
   124   62   64 am   BACKBONE|DICT|INTERRES
   125   64   65 1    
   126   64  130 1    
   127   65   66 1    
   128   65   69 1    
   129   65  131 1    
   130   66   67 am   BACKBONE|DICT|INTERRES
   131   66   68 2    
   132   67  132 1    
   133   67  133 1    
   134   69   70 1    
   135   69  134 1    
   136   69  135 1    
   137   70   71 1    
   138   71  136 1    
   139   71  137 1    
@<TRIPOS>SUBSTRUCTURE
     1 UNK         1 GROUP             0       ****    0 ROOT    
