@<TRIPOS>MOLECULE
3R137
137   139    1
SMALL
USER_CHARGES


@<TRIPOS>ATOM
      1 CA         26.6986   -7.8174   -4.0770 C.3       0 UNK        -0.2020 
      2 C          26.6744   -6.7381   -3.0049 C.2       0 UNK         0.4855 
      3 O          26.0229   -6.9129   -1.9742 O.2       0 UNK        -0.5197 
      4 N          27.3885   -5.6297   -3.2356 N.am      1 UNK        -0.4892 
      5 CA         27.4474   -4.4633   -2.3441 C.3       1 UNK         0.0835 
      6 C6         28.6563   -3.5382   -2.6593 C.3       12 UNK        -0.0855 
      7 S7         30.2201   -4.4441   -2.9492 S.3       12 UNK        -0.2931 
      8 C8         31.4738   -3.3244   -2.2471 C.3       12 UNK         0.0378 
      9 C9         31.3678   -1.9094   -2.8001 C.ar      12 UNK        -0.0802 
     10 C10        31.5718   -1.6568   -4.1614 C.ar      12 UNK        -0.0944 
     11 C11        31.4480   -0.3583   -4.6648 C.ar      12 UNK        -0.0787 
     12 C12        31.1617    0.6925   -3.7911 C.ar      12 UNK        -0.0862 
     13 C13        30.9172    0.4482   -2.4375 C.ar      12 UNK        -0.0733 
     14 C14        31.0363   -0.8538   -1.9457 C.ar      12 UNK        -0.0832 
     15 C15        30.4826    1.5752   -1.5079 C.3       12 UNK         0.0240 
     16 S16        29.1142    2.5825   -2.1800 S.3       12 UNK        -0.2522 
     17 C17        27.8840    1.3337   -2.7070 C.3       12 UNK        -0.0967 
     18 CA         27.7581    1.2351   -4.2521 C.3       5 UNK         0.0660 
     19 N          27.0851    0.0088   -4.6879 N.am      5 UNK        -0.4015 
     20 C          27.1737   -0.5030   -5.9279 C.2       4 UNK         0.4946 
     21 O          27.9328   -0.0656   -6.7947 O.2       4 UNK        -0.5353 
     22 CA         26.2283   -1.6633   -6.2992 C.3       4 UNK         0.0277 
     23 CB         26.9530   -3.0177   -6.2710 C.3       4 UNK        -0.1981 
     24 N          25.0197   -1.7233   -5.4712 N.am      4 UNK        -0.4209 
     25 C          24.0506   -0.7954   -5.5045 C.2       3 UNK         0.4942 
     26 O          24.0502    0.1488   -6.2934 O.2       3 UNK        -0.5208 
     27 CA         22.9281   -0.8826   -4.4534 C.3       3 UNK         0.0250 
     28 CB         21.7020   -1.5990   -5.0396 C.3       3 UNK        -0.1990 
     29 N          23.3188   -1.5351   -3.1992 N.am      3 UNK        -0.4232 
     30 C          24.3285   -1.1586   -2.4007 C.2       2 UNK         0.4993 
     31 O          25.0494   -0.1869   -2.6300 O.2       2 UNK        -0.5286 
     32 CA         24.6352   -2.0483   -1.1788 C.3       2 UNK         0.0209 
     33 CB         23.4541   -2.9521   -0.7571 C.3       2 UNK        -0.1931 
     34 N          25.8486   -2.8611   -1.3660 N.am      2 UNK        -0.4546 
     35 C          26.1189   -3.6737   -2.4004 C.2       1 UNK         0.5154 
     36 O          25.3808   -3.7915   -3.3843 O.2       1 UNK        -0.5181 
     37 C          27.0729    2.4743   -4.8561 C.2       5 UNK         0.5014 
     38 O          27.7638    3.3519   -5.3739 O.2       5 UNK        -0.5248 
     39 N          25.7313    2.5060   -4.8233 N.am      6 UNK        -0.4434 
     40 CA         24.9146    3.5702   -5.4173 C.3       6 UNK         0.0363 
     41 CB         23.4435    3.3877   -5.0102 C.3       6 UNK        -0.1936 
     42 C          25.0577    3.6456   -6.9482 C.2       6 UNK         0.5081 
     43 O          25.1271    4.7447   -7.4983 O.2       6 UNK        -0.5248 
     44 N          25.1354    2.4783   -7.6012 N.am      7 UNK        -0.4718 
     45 CA         25.4084    2.3403   -9.0341 C.3       7 UNK         0.0273 
     46 CB         25.0109    0.9241   -9.4808 C.3       7 UNK        -0.1935 
     47 C          26.8755    2.6197   -9.4149 C.2       7 UNK         0.5018 
     48 O          27.1395    2.8759  -10.5902 O.2       7 UNK        -0.5186 
     49 N          27.7908    2.5422   -8.4347 N.am      8 UNK        -0.4240 
     50 CA         29.2519    2.6347   -8.5545 C.3       8 UNK         0.0235 
     51 CB         29.6835    4.0660   -8.9351 C.3       8 UNK        -0.2000 
     52 C          29.8144    1.5580   -9.5020 C.2       8 UNK         0.4941 
     53 O          30.5383    1.8732  -10.4503 O.2       8 UNK        -0.5273 
     54 N          29.4270    0.3002   -9.2519 N.am      9 UNK        -0.4262 
     55 CA         29.6967   -0.8594  -10.1049 C.3       9 UNK         0.0264 
     56 CB         28.7104   -1.9800   -9.7328 C.3       9 UNK        -0.1955 
     57 C          31.1649   -1.3261  -10.0446 C.2       9 UNK         0.5031 
     58 O          31.4494   -2.3938   -9.4970 O.2       9 UNK        -0.5390 
     59 N          32.0709   -0.5087  -10.5991 N.am      10 UNK        -0.4204 
     60 CA         33.5235   -0.6910  -10.7715 C.3       10 UNK         0.0237 
     61 CB         33.8372   -1.9300  -11.6330 C.3       10 UNK        -0.1985 
     62 C          34.3415   -0.7045   -9.4660 C.2       10 UNK         0.4970 
     63 O          35.4047   -0.0838   -9.4218 O.2       10 UNK        -0.4914 
     64 N          33.8210   -1.3766   -8.4354 N.am      11 UNK        -0.4285 
     65 CA         34.3485   -1.4597   -7.0660 C.3       11 UNK         0.1007 
     66 C          35.6850   -2.2553   -6.9631 C.2       11 UNK         0.5703 
     67 N          36.3946   -2.1657   -5.8452 N.am      11 UNK        -0.7361 
     68 O          36.0675   -2.9983   -7.8660 O.2       11 UNK        -0.4986 
     69 C69        34.3850   -0.0773   -6.3388 C.3       12 UNK        -0.0947 
     70 S70        32.9263    0.9967   -6.5952 S.3       12 UNK        -0.2240 
     71 C71        31.5340   -0.0895   -6.1585 C.3       12 UNK         0.0194 
     72 H72        25.6900   -8.0004   -4.4467 H         1 UNK         0.0906 
     73 H73        27.3243   -7.5370   -4.9242 H         1 UNK         0.0906 
     74 H74        27.0850   -8.7488   -3.6638 H         1 UNK         0.0906 
     75 H75        27.9136   -5.5425   -4.0934 H         1 UNK         0.3140 
     76 H76        27.5663   -4.8392   -1.3252 H         1 UNK         0.1085 
     77 H77        28.8015   -2.8402   -1.8330 H         1 UNK         0.0836 
     78 H78        28.4744   -2.9168   -3.5366 H         1 UNK         0.0836 
     79 H79        32.4658   -3.7207   -2.4681 H         1 UNK         0.0731 
     80 H80        31.3784   -3.3281   -1.1601 H         1 UNK         0.0731 
     81 H81        31.7897   -2.4788   -4.8293 H         1 UNK         0.1312 
     82 H82        31.0653    1.6971   -4.1803 H         1 UNK         0.1406 
     83 H83        30.8537   -1.0491   -0.8975 H         1 UNK         0.1631 
     84 H84        31.3374    2.2244   -1.3147 H         1 UNK         0.0717 
     85 H85        30.1705    1.1787   -0.5404 H         1 UNK         0.0717 
     86 H86        28.1597    0.3637   -2.2910 H         1 UNK         0.0934 
     87 H87        26.9258    1.5845   -2.2490 H         1 UNK         0.0934 
     88 H88        28.7607    1.2029   -4.6753 H         1 UNK         0.0739 
     89 H89        26.3990   -0.3677   -4.0411 H         1 UNK         0.3093 
     90 H90        25.9146   -1.4876   -7.3296 H         1 UNK         0.0818 
     91 H91        27.9155   -2.9681   -6.7782 H         1 UNK         0.0819 
     92 H92        27.1459   -3.3565   -5.2579 H         1 UNK         0.0819 
     93 H93        26.3629   -3.7880   -6.7676 H         1 UNK         0.0819 
     94 H94        24.9687   -2.4695   -4.7814 H         1 UNK         0.3041 
     95 H95        22.6400    0.1413   -4.2073 H         1 UNK         0.0784 
     96 H96        21.3732   -1.1180   -5.9623 H         1 UNK         0.0793 
     97 H97        21.9183   -2.6420   -5.2747 H         1 UNK         0.0793 
     98 H98        20.8596   -1.5768   -4.3479 H         1 UNK         0.0793 
     99 H99        22.8166   -2.3761   -2.9541 H         1 UNK         0.3024 
    100 H100       24.8362   -1.3613   -0.3548 H         1 UNK         0.1171 
    101 H101       23.6680   -3.4531    0.1872 H         1 UNK         0.0786 
    102 H102       22.5432   -2.3705   -0.6071 H         1 UNK         0.0786 
    103 H103       23.2395   -3.7276   -1.4935 H         1 UNK         0.0786 
    104 H104       26.5296   -2.7919   -0.6222 H         1 UNK         0.2977 
    105 H105       25.2377    1.7385   -4.3889 H         1 UNK         0.3127 
    106 H106       25.2639    4.5204   -5.0075 H         1 UNK         0.0770 
    107 H107       23.0258    2.4579   -5.3967 H         1 UNK         0.0814 
    108 H108       22.8310    4.2027   -5.3981 H         1 UNK         0.0814 
    109 H109       23.3276    3.3842   -3.9263 H         1 UNK         0.0814 
    110 H110       24.9640    1.6204   -7.0810 H         1 UNK         0.2983 
    111 H111       24.7865    3.0588   -9.5728 H         1 UNK         0.0947 
    112 H112       25.1295    0.8066  -10.5588 H         1 UNK         0.0806 
    113 H113       23.9690    0.7082   -9.2428 H         1 UNK         0.0806 
    114 H114       25.6292    0.1653   -9.0013 H         1 UNK         0.0806 
    115 H115       27.4531    2.3221   -7.5071 H         1 UNK         0.3000 
    116 H116       29.6563    2.4206   -7.5640 H         1 UNK         0.0850 
    117 H117       30.7702    4.1581   -8.9308 H         1 UNK         0.0810 
    118 H118       29.2926    4.7967   -8.2270 H         1 UNK         0.0810 
    119 H119       29.3374    4.3443   -9.9310 H         1 UNK         0.0810 
    120 H120       28.8583    0.1322   -8.4230 H         1 UNK         0.3040 
    121 H121       29.4908   -0.5740  -11.1389 H         1 UNK         0.0766 
    122 H122       27.6754   -1.6485   -9.8196 H         1 UNK         0.0812 
    123 H123       28.8702   -2.3221   -8.7115 H         1 UNK         0.0812 
    124 H124       28.8330   -2.8429  -10.3886 H         1 UNK         0.0812 
    125 H125       31.7123    0.3990  -10.8900 H         1 UNK         0.3205 
    126 H126       33.8563    0.1847  -11.3312 H         1 UNK         0.0754 
    127 H127       34.9068   -2.0015  -11.8352 H         1 UNK         0.0769 
    128 H128       33.3278   -1.8829  -12.5955 H         1 UNK         0.0769 
    129 H129       33.5397   -2.8563  -11.1406 H         1 UNK         0.0769 
    130 H130       32.9598   -1.8871   -8.6164 H         1 UNK         0.2981 
    131 H131       33.6324   -2.0873   -6.5367 H         1 UNK         0.0541 
    132 H132       36.0949   -1.5807   -5.0816 H         1 UNK         0.3459 
    133 H133       37.2500   -2.6932   -5.7665 H         1 UNK         0.3459 
    134 H134       35.2588    0.4912   -6.6615 H         1 UNK         0.0612 
    135 H135       34.4969   -0.2203   -5.2630 H         1 UNK         0.0612 
    136 H136       30.6124    0.4029   -6.4683 H         1 UNK         0.0624 
    137 H137       31.5748   -1.0163   -6.7302 H         1 UNK         0.0624 
@<TRIPOS>BOND
     1    1    2 1    
     2    1   72 1    
     3    1   73 1    
     4    1   74 1    
     5    2    3 2    
     6    2    4 am   BACKBONE|DICT|INTERRES
     7    4    5 1    
     8    4   75 1    
     9    5    6 1    
    10    5   35 1    
    11    5   76 1    
    12    6    7 1    
    13    6   77 1    
    14    6   78 1    
    15    7    8 1    
    16    8    9 1    
    17    8   79 1    
    18    8   80 1    
    19    9   10 ar   
    20    9   14 ar   
    21   10   11 ar   
    22   10   81 1    
    23   11   12 ar   
    24   11   71 1    
    25   12   13 ar   
    26   12   82 1    
    27   13   14 ar   
    28   13   15 1    
    29   14   83 1    
    30   15   16 1    
    31   15   84 1    
    32   15   85 1    
    33   16   17 1    
    34   17   18 1    
    35   17   86 1    
    36   17   87 1    
    37   18   19 1    
    38   18   37 1    
    39   18   88 1    
    40   19   20 am   BACKBONE|DICT|INTERRES
    41   19   89 1    
    42   20   21 2    
    43   20   22 1    
    44   22   23 1    
    45   22   24 1    
    46   22   90 1    
    47   23   91 1    
    48   23   92 1    
    49   23   93 1    
    50   24   25 am   BACKBONE|DICT|INTERRES
    51   24   94 1    
    52   25   26 2    
    53   25   27 1    
    54   27   28 1    
    55   27   29 1    
    56   27   95 1    
    57   28   96 1    
    58   28   97 1    
    59   28   98 1    
    60   29   30 am   BACKBONE|DICT|INTERRES
    61   29   99 1    
    62   30   31 2    
    63   30   32 1    
    64   32   33 1    
    65   32   34 1    
    66   32  100 1    
    67   33  101 1    
    68   33  102 1    
    69   33  103 1    
    70   34   35 am   BACKBONE|DICT|INTERRES
    71   34  104 1    
    72   35   36 2    
    73   37   38 2    
    74   37   39 am   BACKBONE|DICT|INTERRES
    75   39   40 1    
    76   39  105 1    
    77   40   41 1    
    78   40   42 1    
    79   40  106 1    
    80   41  107 1    
    81   41  108 1    
    82   41  109 1    
    83   42   43 2    
    84   42   44 am   BACKBONE|DICT|INTERRES
    85   44   45 1    
    86   44  110 1    
    87   45   46 1    
    88   45   47 1    
    89   45  111 1    
    90   46  112 1    
    91   46  113 1    
    92   46  114 1    
    93   47   48 2    
    94   47   49 am   BACKBONE|DICT|INTERRES
    95   49   50 1    
    96   49  115 1    
    97   50   51 1    
    98   50   52 1    
    99   50  116 1    
   100   51  117 1    
   101   51  118 1    
   102   51  119 1    
   103   52   53 2    
   104   52   54 am   BACKBONE|DICT|INTERRES
   105   54   55 1    
   106   54  120 1    
   107   55   56 1    
   108   55   57 1    
   109   55  121 1    
   110   56  122 1    
   111   56  123 1    
   112   56  124 1    
   113   57   58 2    
   114   57   59 am   BACKBONE|DICT|INTERRES
   115   59   60 1    
   116   59  125 1    
   117   60   61 1    
   118   60   62 1    
   119   60  126 1    
   120   61  127 1    
   121   61  128 1    
   122   61  129 1    
   123   62   63 2    
   124   62   64 am   BACKBONE|DICT|INTERRES
   125   64   65 1    
   126   64  130 1    
   127   65   66 1    
   128   65   69 1    
   129   65  131 1    
   130   66   67 am   BACKBONE|DICT|INTERRES
   131   66   68 2    
   132   67  132 1    
   133   67  133 1    
   134   69   70 1    
   135   69  134 1    
   136   69  135 1    
   137   70   71 1    
   138   71  136 1    
   139   71  137 1    
@<TRIPOS>SUBSTRUCTURE
     1 UNK         1 GROUP             0       ****    0 ROOT    
