@<TRIPOS>MOLECULE
3R137
137   139    1
SMALL
USER_CHARGES


@<TRIPOS>ATOM
      1 CA         25.8970   -7.9137   -2.5243 C.3       0 UNK        -0.2020 
      2 C          25.8718   -6.5882   -1.7782 C.2       0 UNK         0.4855 
      3 O          25.0526   -6.4077   -0.8764 O.2       0 UNK        -0.5197 
      4 N          26.7700   -5.6644   -2.1397 N.am      1 UNK        -0.4892 
      5 CA         26.8444   -4.3018   -1.6045 C.3       1 UNK         0.0835 
      6 C6         28.2234   -3.6382   -1.8704 C.3       12 UNK        -0.0855 
      7 S7         28.9318   -3.9476   -3.5292 S.3       12 UNK        -0.2931 
      8 C8         30.7037   -3.6211   -3.2590 C.3       12 UNK         0.0378 
      9 C9         31.0121   -2.1349   -3.3545 C.ar      12 UNK        -0.0802 
     10 C10        31.5747   -1.6001   -4.5175 C.ar      12 UNK        -0.0944 
     11 C11        31.8404   -0.2301   -4.6114 C.ar      12 UNK        -0.0787 
     12 C12        31.5212    0.6104   -3.5411 C.ar      12 UNK        -0.0862 
     13 C13        30.9381    0.0866   -2.3836 C.ar      12 UNK        -0.0733 
     14 C14        30.7186   -1.2888   -2.2834 C.ar      12 UNK        -0.0832 
     15 C15        30.4916    1.0060   -1.2582 C.3       12 UNK         0.0240 
     16 S16        29.0479    2.0134   -1.7360 S.3       12 UNK        -0.2522 
     17 C17        27.8695    0.7842   -2.4124 C.3       12 UNK        -0.0967 
     18 CA         27.8420    0.7690   -3.9660 C.3       5 UNK         0.0660 
     19 N          27.1155   -0.3792   -4.5164 N.am      5 UNK        -0.4015 
     20 C          27.2746   -0.8337   -5.7706 C.2       4 UNK         0.4946 
     21 O          28.1567   -0.4350   -6.5334 O.2       4 UNK        -0.5353 
     22 CA         26.2510   -1.8546   -6.3050 C.3       4 UNK         0.0277 
     23 CB         26.7960   -3.2897   -6.2834 C.3       4 UNK        -0.1981 
     24 N          24.9631   -1.8089   -5.6095 N.am      4 UNK        -0.4209 
     25 C          24.0596   -0.8345   -5.7874 C.2       3 UNK         0.4942 
     26 O          24.2104    0.0943   -6.5779 O.2       3 UNK        -0.5208 
     27 CA         22.8006   -0.8590   -4.9045 C.3       3 UNK         0.0250 
     28 CB         21.6837   -1.6653   -5.5851 C.3       3 UNK        -0.1990 
     29 N          23.0290   -1.3828   -3.5563 N.am      3 UNK        -0.4232 
     30 C          23.9268   -0.9138   -2.6784 C.2       2 UNK         0.4993 
     31 O          24.6779    0.0351   -2.9111 O.2       2 UNK        -0.5286 
     32 CA         24.0397   -1.6483   -1.3307 C.3       2 UNK         0.0209 
     33 CB         22.7907   -2.4873   -0.9758 C.3       2 UNK        -0.1931 
     34 N          25.2443   -2.4854   -1.2301 N.am      2 UNK        -0.4546 
     35 C          25.6584   -3.4351   -2.0858 C.2       1 UNK         0.5154 
     36 O          25.1444   -3.6447   -3.1891 O.2       1 UNK        -0.5181 
     37 C          27.2611    2.0725   -4.5442 C.2       5 UNK         0.5014 
     38 O          28.0215    2.9070   -5.0349 O.2       5 UNK        -0.5248 
     39 N          25.9255    2.2062   -4.5068 N.am      6 UNK        -0.4434 
     40 CA         25.1858    3.3713   -5.0043 C.3       6 UNK         0.0363 
     41 CB         23.6919    3.2116   -4.6815 C.3       6 UNK        -0.1936 
     42 C          25.3942    3.6371   -6.5063 C.2       6 UNK         0.5081 
     43 O          25.5955    4.7877   -6.8955 O.2       6 UNK        -0.5248 
     44 N          25.3690    2.5711   -7.3170 N.am      7 UNK        -0.4718 
     45 CA         25.6469    2.6147   -8.7550 C.3       7 UNK         0.0273 
     46 CB         25.0383    1.3684   -9.4192 C.3       7 UNK        -0.1935 
     47 C          27.1471    2.7081   -9.0885 C.2       7 UNK         0.5018 
     48 O          27.4734    3.0492  -10.2258 O.2       7 UNK        -0.5186 
     49 N          28.0152    2.3878   -8.1147 N.am      8 UNK        -0.4240 
     50 CA         29.4747    2.2670   -8.2077 C.3       8 UNK         0.0235 
     51 CB         30.1308    3.6455   -8.4290 C.3       8 UNK        -0.2000 
     52 C          29.8809    1.2270   -9.2667 C.2       8 UNK         0.4941 
     53 O          30.4263    1.5841  -10.3137 O.2       8 UNK        -0.5273 
     54 N          29.5494   -0.0412   -8.9899 N.am      9 UNK        -0.4262 
     55 CA         29.7282   -1.1982   -9.8724 C.3       9 UNK         0.0264 
     56 CB         28.9750   -2.3960   -9.2673 C.3       9 UNK        -0.1955 
     57 C          31.2081   -1.5298  -10.1522 C.2       9 UNK         0.5031 
     58 O          31.7542   -2.4651   -9.5620 O.2       9 UNK        -0.5390 
     59 N          31.8312   -0.7377  -11.0355 N.am      10 UNK        -0.4204 
     60 CA         33.2196   -0.7766  -11.5200 C.3       10 UNK         0.0237 
     61 CB         33.5520   -2.1171  -12.2051 C.3       10 UNK        -0.1985 
     62 C          34.2624   -0.4178  -10.4480 C.2       10 UNK         0.4970 
     63 O          35.1040    0.4469  -10.6924 O.2       10 UNK        -0.4914 
     64 N          34.1711   -1.0681   -9.2838 N.am      11 UNK        -0.4285 
     65 CA         34.9819   -0.8411   -8.0795 C.3       11 UNK         0.1007 
     66 C          36.4902   -1.2194   -8.2011 C.2       11 UNK         0.5703 
     67 N          36.9003   -1.9761   -9.2124 N.am      11 UNK        -0.7361 
     68 O          37.2990   -0.8541   -7.3510 O.2       11 UNK        -0.4986 
     69 C69        34.7302    0.5730   -7.4667 C.3       12 UNK        -0.0947 
     70 S70        34.2635    0.4680   -5.7114 S.3       12 UNK        -0.2240 
     71 C71        32.4572    0.3411   -5.8757 C.3       12 UNK         0.0194 
     72 H72        24.9407   -8.0836   -3.0182 H         1 UNK         0.0906 
     73 H73        26.6794   -7.9399   -3.2827 H         1 UNK         0.0906 
     74 H74        26.0720   -8.7336   -1.8281 H         1 UNK         0.0906 
     75 H75        27.4021   -5.8462   -2.9074 H         1 UNK         0.3140 
     76 H76        26.7375   -4.3891   -0.5204 H         1 UNK         0.1085 
     77 H77        28.9325   -4.0182   -1.1333 H         1 UNK         0.0836 
     78 H78        28.1737   -2.5627   -1.7003 H         1 UNK         0.0836 
     79 H79        31.2749   -4.1704   -4.0090 H         1 UNK         0.0731 
     80 H80        31.0205   -4.0138   -2.2918 H         1 UNK         0.0731 
     81 H81        31.8046   -2.2491   -5.3516 H         1 UNK         0.1312 
     82 H82        31.6984    1.6745   -3.6192 H         1 UNK         0.1406 
     83 H83        30.2849   -1.6973   -1.3820 H         1 UNK         0.1631 
     84 H84        31.3129    1.6685   -0.9816 H         1 UNK         0.0717 
     85 H85        30.2430    0.4346   -0.3625 H         1 UNK         0.0717 
     86 H86        28.1258   -0.2030   -2.0306 H         1 UNK         0.0934 
     87 H87        26.8831    1.0055   -2.0031 H         1 UNK         0.0934 
     88 H88        28.8727    0.6920   -4.3154 H         1 UNK         0.0739 
     89 H89        26.3217   -0.7021   -3.9778 H         1 UNK         0.3093 
     90 H90        26.0810   -1.5911   -7.3514 H         1 UNK         0.0818 
     91 H91        27.8388   -3.3295   -6.5986 H         1 UNK         0.0819 
     92 H92        26.2286   -3.9330   -6.9557 H         1 UNK         0.0819 
     93 H93        26.7393   -3.7277   -5.2891 H         1 UNK         0.0819 
     94 H94        24.7958   -2.5186   -4.9018 H         1 UNK         0.3041 
     95 H95        22.4576    0.1710   -4.7955 H         1 UNK         0.0784 
     96 H96        21.4791   -1.2801   -6.5853 H         1 UNK         0.0793 
     97 H97        21.9509   -2.7178   -5.6893 H         1 UNK         0.0793 
     98 H98        20.7520   -1.6083   -5.0219 H         1 UNK         0.0793 
     99 H99        22.4857   -2.1902   -3.2873 H         1 UNK         0.3024 
    100 H100       24.1349   -0.8653   -0.5762 H         1 UNK         0.1171 
    101 H101       22.8546   -2.8641    0.0452 H         1 UNK         0.0786 
    102 H102       21.8798   -1.8895   -1.0351 H         1 UNK         0.0786 
    103 H103       22.6698   -3.3505   -1.6317 H         1 UNK         0.0786 
    104 H104       25.7681   -2.3645   -0.3741 H         1 UNK         0.2977 
    105 H105       25.3813    1.4737   -4.0588 H         1 UNK         0.3127 
    106 H106       25.5579    4.2431   -4.4622 H         1 UNK         0.0770 
    107 H107       23.2514    2.3722   -5.2190 H         1 UNK         0.0814 
    108 H108       23.1360    4.1058   -4.9665 H         1 UNK         0.0814 
    109 H109       23.5278    3.0529   -3.6155 H         1 UNK         0.0814 
    110 H110       25.1088    1.6639   -6.9324 H         1 UNK         0.2983 
    111 H111       25.1624    3.4981   -9.1769 H         1 UNK         0.0947 
    112 H112       25.1790    1.3918  -10.5007 H         1 UNK         0.0806 
    113 H113       23.9661    1.3027   -9.2331 H         1 UNK         0.0806 
    114 H114       25.4987    0.4510   -9.0498 H         1 UNK         0.0806 
    115 H115       27.6263    2.1478   -7.2123 H         1 UNK         0.3000 
    116 H116       29.8157    1.8901   -7.2419 H         1 UNK         0.0850 
    117 H117       31.2181    3.5609   -8.4338 H         1 UNK         0.0810 
    118 H118       29.8614    4.3411   -7.6342 H         1 UNK         0.0810 
    119 H119       29.8356    4.0913   -9.3794 H         1 UNK         0.0810 
    120 H120       29.0909   -0.2262   -8.0973 H         1 UNK         0.3040 
    121 H121       29.2582   -0.9633  -10.8297 H         1 UNK         0.0766 
    122 H122       27.9122   -2.1822   -9.1543 H         1 UNK         0.0812 
    123 H123       29.3714   -2.6603   -8.2862 H         1 UNK         0.0812 
    124 H124       29.0635   -3.2773   -9.9038 H         1 UNK         0.0812 
    125 H125       31.3107    0.0925  -11.3074 H         1 UNK         0.3205 
    126 H126       33.2808    0.0005  -12.2838 H         1 UNK         0.0754 
    127 H127       34.5528   -2.0937  -12.6386 H         1 UNK         0.0769 
    128 H128       32.8541   -2.3300  -13.0149 H         1 UNK         0.0769 
    129 H129       33.5210   -2.9556  -11.5088 H         1 UNK         0.0769 
    130 H130       33.4264   -1.7572   -9.2011 H         1 UNK         0.2981 
    131 H131       34.5947   -1.5891   -7.3869 H         1 UNK         0.0541 
    132 H132       37.8742   -2.2266   -9.2787 H         1 UNK         0.3459 
    133 H133       36.2469   -2.2930   -9.9101 H         1 UNK         0.3459 
    134 H134       35.6052    1.2186   -7.5597 H         1 UNK         0.0612 
    135 H135       33.9339    1.1029   -7.9924 H         1 UNK         0.0612 
    136 H136       32.0427    1.3274   -6.0892 H         1 UNK         0.0624 
    137 H137       32.2064   -0.2918   -6.7292 H         1 UNK         0.0624 
@<TRIPOS>BOND
     1    1    2 1    
     2    1   72 1    
     3    1   73 1    
     4    1   74 1    
     5    2    3 2    
     6    2    4 am   BACKBONE|DICT|INTERRES
     7    4    5 1    
     8    4   75 1    
     9    5    6 1    
    10    5   35 1    
    11    5   76 1    
    12    6    7 1    
    13    6   77 1    
    14    6   78 1    
    15    7    8 1    
    16    8    9 1    
    17    8   79 1    
    18    8   80 1    
    19    9   10 ar   
    20    9   14 ar   
    21   10   11 ar   
    22   10   81 1    
    23   11   12 ar   
    24   11   71 1    
    25   12   13 ar   
    26   12   82 1    
    27   13   14 ar   
    28   13   15 1    
    29   14   83 1    
    30   15   16 1    
    31   15   84 1    
    32   15   85 1    
    33   16   17 1    
    34   17   18 1    
    35   17   86 1    
    36   17   87 1    
    37   18   19 1    
    38   18   37 1    
    39   18   88 1    
    40   19   20 am   BACKBONE|DICT|INTERRES
    41   19   89 1    
    42   20   21 2    
    43   20   22 1    
    44   22   23 1    
    45   22   24 1    
    46   22   90 1    
    47   23   91 1    
    48   23   92 1    
    49   23   93 1    
    50   24   25 am   BACKBONE|DICT|INTERRES
    51   24   94 1    
    52   25   26 2    
    53   25   27 1    
    54   27   28 1    
    55   27   29 1    
    56   27   95 1    
    57   28   96 1    
    58   28   97 1    
    59   28   98 1    
    60   29   30 am   BACKBONE|DICT|INTERRES
    61   29   99 1    
    62   30   31 2    
    63   30   32 1    
    64   32   33 1    
    65   32   34 1    
    66   32  100 1    
    67   33  101 1    
    68   33  102 1    
    69   33  103 1    
    70   34   35 am   BACKBONE|DICT|INTERRES
    71   34  104 1    
    72   35   36 2    
    73   37   38 2    
    74   37   39 am   BACKBONE|DICT|INTERRES
    75   39   40 1    
    76   39  105 1    
    77   40   41 1    
    78   40   42 1    
    79   40  106 1    
    80   41  107 1    
    81   41  108 1    
    82   41  109 1    
    83   42   43 2    
    84   42   44 am   BACKBONE|DICT|INTERRES
    85   44   45 1    
    86   44  110 1    
    87   45   46 1    
    88   45   47 1    
    89   45  111 1    
    90   46  112 1    
    91   46  113 1    
    92   46  114 1    
    93   47   48 2    
    94   47   49 am   BACKBONE|DICT|INTERRES
    95   49   50 1    
    96   49  115 1    
    97   50   51 1    
    98   50   52 1    
    99   50  116 1    
   100   51  117 1    
   101   51  118 1    
   102   51  119 1    
   103   52   53 2    
   104   52   54 am   BACKBONE|DICT|INTERRES
   105   54   55 1    
   106   54  120 1    
   107   55   56 1    
   108   55   57 1    
   109   55  121 1    
   110   56  122 1    
   111   56  123 1    
   112   56  124 1    
   113   57   58 2    
   114   57   59 am   BACKBONE|DICT|INTERRES
   115   59   60 1    
   116   59  125 1    
   117   60   61 1    
   118   60   62 1    
   119   60  126 1    
   120   61  127 1    
   121   61  128 1    
   122   61  129 1    
   123   62   63 2    
   124   62   64 am   BACKBONE|DICT|INTERRES
   125   64   65 1    
   126   64  130 1    
   127   65   66 1    
   128   65   69 1    
   129   65  131 1    
   130   66   67 am   BACKBONE|DICT|INTERRES
   131   66   68 2    
   132   67  132 1    
   133   67  133 1    
   134   69   70 1    
   135   69  134 1    
   136   69  135 1    
   137   70   71 1    
   138   71  136 1    
   139   71  137 1    
@<TRIPOS>SUBSTRUCTURE
     1 UNK         1 GROUP             0       ****    0 ROOT    
