@<TRIPOS>MOLECULE
3R137
137   139    1
SMALL
USER_CHARGES


@<TRIPOS>ATOM
      1 CA         29.0847   -8.3215    0.5070 C.3       0 UNK        -0.2020 
      2 C          28.3200   -7.0084    0.5758 C.2       0 UNK         0.4855 
      3 O          27.3199   -6.9180    1.2878 O.2       0 UNK        -0.5197 
      4 N          28.7784   -5.9896   -0.1628 N.am      1 UNK        -0.4892 
      5 CA         28.1685   -4.6538   -0.2304 C.3       1 UNK         0.0835 
      6 C6         29.2110   -3.5678   -0.5969 C.3       12 UNK        -0.0855 
      7 S7         30.1117   -3.8811   -2.1565 S.3       12 UNK        -0.2931 
      8 C8         29.2155   -2.8220   -3.3334 C.3       12 UNK         0.0378 
      9 C9         29.5323   -1.3449   -3.1489 C.ar      12 UNK        -0.0802 
     10 C10        30.6604   -0.7906   -3.7589 C.ar      12 UNK        -0.0944 
     11 C11        30.9483    0.5719   -3.6259 C.ar      12 UNK        -0.0787 
     12 C12        30.1033    1.3798   -2.8597 C.ar      12 UNK        -0.0862 
     13 C13        28.9601    0.8411   -2.2602 C.ar      12 UNK        -0.0733 
     14 C14        28.6799   -0.5212   -2.4074 C.ar      12 UNK        -0.0832 
     15 C15        27.9955    1.7409   -1.5022 C.3       12 UNK         0.0240 
     16 S16        26.4457    1.9941   -2.4288 S.3       12 UNK        -0.2522 
     17 C17        27.0263    2.8482   -3.9369 C.3       12 UNK        -0.0967 
     18 CA         27.3375    1.8653   -5.1037 C.3       5 UNK         0.0660 
     19 N          26.2034    0.9970   -5.4284 N.am      5 UNK        -0.4015 
     20 C          25.1367    1.2731   -6.1866 C.2       4 UNK         0.4946 
     21 O          24.9940    2.3353   -6.7953 O.2       4 UNK        -0.5353 
     22 CA         24.0502    0.1772   -6.2906 C.3       4 UNK         0.0277 
     23 CB         23.1484    0.3751   -7.5246 C.3       4 UNK        -0.1981 
     24 N          24.5721   -1.1987   -6.2988 N.am      4 UNK        -0.4209 
     25 C          25.0606   -1.8612   -5.2420 C.2       3 UNK         0.4942 
     26 O          25.1742   -1.3671   -4.1180 O.2       3 UNK        -0.5208 
     27 CA         25.5652   -3.2847   -5.4941 C.3       3 UNK         0.0250 
     28 CB         26.9600   -3.2597   -6.1486 C.3       3 UNK        -0.1990 
     29 N          25.6005   -3.9945   -4.2155 N.am      3 UNK        -0.4232 
     30 C          25.5501   -5.3227   -4.0716 C.2       2 UNK         0.4993 
     31 O          25.6170   -6.1118   -5.0165 O.2       2 UNK        -0.5286 
     32 CA         25.3862   -5.8570   -2.6380 C.3       2 UNK         0.0209 
     33 CB         25.0010   -7.3489   -2.6061 C.3       2 UNK        -0.1931 
     34 N          26.6047   -5.6779   -1.8495 N.am      2 UNK        -0.4546 
     35 C          26.9063   -4.5927   -1.1244 C.2       1 UNK         0.5154 
     36 O          26.2191   -3.5700   -1.1314 O.2       1 UNK        -0.5181 
     37 C          27.9430    2.5337   -6.3572 C.2       5 UNK         0.5014 
     38 O          28.3855    1.8209   -7.2606 O.2       5 UNK        -0.5248 
     39 N          27.9424    3.8729   -6.4100 N.am      6 UNK        -0.4434 
     40 CA         28.4813    4.6742   -7.5110 C.3       6 UNK         0.0363 
     41 CB         28.5330    6.1490   -7.0806 C.3       6 UNK        -0.1936 
     42 C          27.7172    4.5309   -8.8403 C.2       6 UNK         0.5081 
     43 O          28.3100    4.7872   -9.8882 O.2       6 UNK        -0.5248 
     44 N          26.4388    4.1232   -8.7966 N.am      7 UNK        -0.4718 
     45 CA         25.6407    3.8498   -9.9970 C.3       7 UNK         0.0273 
     46 CB         24.1416    3.9031   -9.6614 C.3       7 UNK        -0.1935 
     47 C          26.0134    2.5021  -10.6362 C.2       7 UNK         0.5018 
     48 O          25.9540    2.3791  -11.8601 O.2       7 UNK        -0.5186 
     49 N          26.4119    1.5296   -9.8038 N.am      8 UNK        -0.4240 
     50 CA         26.9750    0.2517  -10.2432 C.3       8 UNK         0.0235 
     51 CB         26.7846   -0.8031   -9.1415 C.3       8 UNK        -0.2000 
     52 C          28.4612    0.3777  -10.6162 C.2       8 UNK         0.4941 
     53 O          28.9063   -0.3003  -11.5423 O.2       8 UNK        -0.5273 
     54 N          29.1925    1.2264   -9.8756 N.am      9 UNK        -0.4262 
     55 CA         30.6388    1.4687   -9.9475 C.3       9 UNK         0.0264 
     56 CB         31.0394    2.0843  -11.3044 C.3       9 UNK        -0.1955 
     57 C          31.4606    0.2181   -9.5787 C.2       9 UNK         0.5031 
     58 O          32.5363   -0.0071  -10.1369 O.2       9 UNK        -0.5390 
     59 N          30.9393   -0.5694   -8.6261 N.am      10 UNK        -0.4204 
     60 CA         31.4735   -1.8663   -8.1951 C.3       10 UNK         0.0237 
     61 CB         30.4650   -2.5235   -7.2386 C.3       10 UNK        -0.1985 
     62 C          32.8825   -1.8188   -7.5723 C.2       10 UNK         0.4970 
     63 O          33.5732   -2.8383   -7.5809 O.2       10 UNK        -0.4914 
     64 N          33.2881   -0.6480   -7.0666 N.am      11 UNK        -0.4285 
     65 CA         34.6482   -0.3685   -6.5793 C.3       11 UNK         0.1007 
     66 C          35.6771   -0.0829   -7.7140 C.2       11 UNK         0.5703 
     67 N          35.2786    0.0396   -8.9761 N.am      11 UNK        -0.7361 
     68 O          36.8715    0.0182   -7.4433 O.2       11 UNK        -0.4986 
     69 C69        34.6564    0.7607   -5.5128 C.3       12 UNK        -0.0947 
     70 S70        33.6925    0.3196   -4.0287 S.3       12 UNK        -0.2240 
     71 C71        32.1272    1.1847   -4.3688 C.3       12 UNK         0.0194 
     72 H72        29.9444   -8.2591   -0.1600 H         1 UNK         0.0906 
     73 H73        29.4444   -8.5982    1.4977 H         1 UNK         0.0906 
     74 H74        28.4330   -9.1172    0.1468 H         1 UNK         0.0906 
     75 H75        29.6054   -6.1099   -0.7330 H         1 UNK         0.3140 
     76 H76        27.8107   -4.4102    0.7729 H         1 UNK         0.1085 
     77 H77        29.9578   -3.5150    0.1968 H         1 UNK         0.0836 
     78 H78        28.7505   -2.5806   -0.6100 H         1 UNK         0.0836 
     79 H79        29.4945   -3.1309   -4.3412 H         1 UNK         0.0731 
     80 H80        28.1428   -2.9963   -3.2494 H         1 UNK         0.0731 
     81 H81        31.3137   -1.4199   -4.3476 H         1 UNK         0.1312 
     82 H82        30.3117    2.4367   -2.7641 H         1 UNK         0.1406 
     83 H83        27.7816   -0.9314   -1.9645 H         1 UNK         0.1631 
     84 H84        28.4497    2.7086   -1.2838 H         1 UNK         0.0717 
     85 H85        27.7614    1.2873   -0.5381 H         1 UNK         0.0717 
     86 H86        26.2455    3.5527   -4.2296 H         1 UNK         0.0934 
     87 H87        27.9045    3.4430   -3.6787 H         1 UNK         0.0934 
     88 H88        28.1154    1.1815   -4.7714 H         1 UNK         0.0739 
     89 H89        26.1749    0.1180   -4.9228 H         1 UNK         0.3093 
     90 H90        23.4223    0.2884   -5.4041 H         1 UNK         0.0818 
     91 H91        22.3697   -0.3860   -7.5766 H         1 UNK         0.0819 
     92 H92        22.6447    1.3421   -7.4900 H         1 UNK         0.0819 
     93 H93        23.7185    0.3399   -8.4535 H         1 UNK         0.0819 
     94 H94        24.5395   -1.6775   -7.1870 H         1 UNK         0.3041 
     95 H95        24.8590   -3.7926   -6.1549 H         1 UNK         0.0784 
     96 H96        26.8889   -2.9587   -7.1932 H         1 UNK         0.0793 
     97 H97        27.6252   -2.5507   -5.6570 H         1 UNK         0.0793 
     98 H98        27.4376   -4.2394   -6.1324 H         1 UNK         0.0793 
     99 H99        25.5404   -3.3950   -3.3977 H         1 UNK         0.3024 
    100 H100       24.5685   -5.2988   -2.1753 H         1 UNK         0.1171 
    101 H101       24.0859   -7.5283   -3.1723 H         1 UNK         0.0786 
    102 H102       24.8206   -7.6891   -1.5861 H         1 UNK         0.0786 
    103 H103       25.7801   -7.9796   -3.0362 H         1 UNK         0.0786 
    104 H104       27.2458   -6.4572   -1.8181 H         1 UNK         0.2977 
    105 H105       27.5293    4.3865   -5.6457 H         1 UNK         0.3127 
    106 H106       29.5043    4.3375   -7.6930 H         1 UNK         0.0770 
    107 H107       27.5388    6.5415   -6.8630 H         1 UNK         0.0814 
    108 H108       28.9624    6.7704   -7.8680 H         1 UNK         0.0814 
    109 H109       29.1514    6.2837   -6.1929 H         1 UNK         0.0814 
    110 H110       26.0191    3.8825   -7.9048 H         1 UNK         0.2983 
    111 H111       25.8439    4.6307  -10.7336 H         1 UNK         0.0947 
    112 H112       23.5398    3.7911  -10.5641 H         1 UNK         0.0806 
    113 H113       23.8692    4.8554   -9.2065 H         1 UNK         0.0806 
    114 H114       23.8463    3.1075   -8.9782 H         1 UNK         0.0806 
    115 H115       26.4331    1.7315   -8.8130 H         1 UNK         0.3000 
    116 H116       26.4381   -0.0872  -11.1321 H         1 UNK         0.0850 
    117 H117       27.2471   -1.7496   -9.4255 H         1 UNK         0.0810 
    118 H118       27.2279   -0.4929   -8.1946 H         1 UNK         0.0810 
    119 H119       25.7277   -1.0017   -8.9725 H         1 UNK         0.0810 
    120 H120       28.7331    1.6556   -9.0752 H         1 UNK         0.3040 
    121 H121       30.8562    2.2094   -9.1765 H         1 UNK         0.0766 
    122 H122       30.4413    2.9678  -11.5286 H         1 UNK         0.0812 
    123 H123       30.9157    1.3766  -12.1245 H         1 UNK         0.0812 
    124 H124       32.0852    2.3936  -11.2990 H         1 UNK         0.0812 
    125 H125       30.0628   -0.2822   -8.2138 H         1 UNK         0.3205 
    126 H126       31.5511   -2.4944   -9.0851 H         1 UNK         0.0754 
    127 H127       30.8524   -3.4594   -6.8329 H         1 UNK         0.0769 
    128 H128       29.5332   -2.7585   -7.7531 H         1 UNK         0.0769 
    129 H129       30.2252   -1.8733   -6.3983 H         1 UNK         0.0769 
    130 H130       32.6637    0.1403   -7.1229 H         1 UNK         0.2981 
    131 H131       35.0129   -1.2719   -6.0865 H         1 UNK         0.0541 
    132 H132       35.9682    0.2183   -9.6883 H         1 UNK         0.3459 
    133 H133       34.3018   -0.0450   -9.2383 H         1 UNK         0.3459 
    134 H134       34.2869    1.6976   -5.9334 H         1 UNK         0.0612 
    135 H135       35.6756    0.9619   -5.1778 H         1 UNK         0.0612 
    136 H136       31.9049    1.1513   -5.4352 H         1 UNK         0.0624 
    137 H137       32.2501    2.2379   -4.1118 H         1 UNK         0.0624 
@<TRIPOS>BOND
     1    1    2 1    
     2    1   72 1    
     3    1   73 1    
     4    1   74 1    
     5    2    3 2    
     6    2    4 am   BACKBONE|DICT|INTERRES
     7    4    5 1    
     8    4   75 1    
     9    5    6 1    
    10    5   35 1    
    11    5   76 1    
    12    6    7 1    
    13    6   77 1    
    14    6   78 1    
    15    7    8 1    
    16    8    9 1    
    17    8   79 1    
    18    8   80 1    
    19    9   10 ar   
    20    9   14 ar   
    21   10   11 ar   
    22   10   81 1    
    23   11   12 ar   
    24   11   71 1    
    25   12   13 ar   
    26   12   82 1    
    27   13   14 ar   
    28   13   15 1    
    29   14   83 1    
    30   15   16 1    
    31   15   84 1    
    32   15   85 1    
    33   16   17 1    
    34   17   18 1    
    35   17   86 1    
    36   17   87 1    
    37   18   19 1    
    38   18   37 1    
    39   18   88 1    
    40   19   20 am   BACKBONE|DICT|INTERRES
    41   19   89 1    
    42   20   21 2    
    43   20   22 1    
    44   22   23 1    
    45   22   24 1    
    46   22   90 1    
    47   23   91 1    
    48   23   92 1    
    49   23   93 1    
    50   24   25 am   BACKBONE|DICT|INTERRES
    51   24   94 1    
    52   25   26 2    
    53   25   27 1    
    54   27   28 1    
    55   27   29 1    
    56   27   95 1    
    57   28   96 1    
    58   28   97 1    
    59   28   98 1    
    60   29   30 am   BACKBONE|DICT|INTERRES
    61   29   99 1    
    62   30   31 2    
    63   30   32 1    
    64   32   33 1    
    65   32   34 1    
    66   32  100 1    
    67   33  101 1    
    68   33  102 1    
    69   33  103 1    
    70   34   35 am   BACKBONE|DICT|INTERRES
    71   34  104 1    
    72   35   36 2    
    73   37   38 2    
    74   37   39 am   BACKBONE|DICT|INTERRES
    75   39   40 1    
    76   39  105 1    
    77   40   41 1    
    78   40   42 1    
    79   40  106 1    
    80   41  107 1    
    81   41  108 1    
    82   41  109 1    
    83   42   43 2    
    84   42   44 am   BACKBONE|DICT|INTERRES
    85   44   45 1    
    86   44  110 1    
    87   45   46 1    
    88   45   47 1    
    89   45  111 1    
    90   46  112 1    
    91   46  113 1    
    92   46  114 1    
    93   47   48 2    
    94   47   49 am   BACKBONE|DICT|INTERRES
    95   49   50 1    
    96   49  115 1    
    97   50   51 1    
    98   50   52 1    
    99   50  116 1    
   100   51  117 1    
   101   51  118 1    
   102   51  119 1    
   103   52   53 2    
   104   52   54 am   BACKBONE|DICT|INTERRES
   105   54   55 1    
   106   54  120 1    
   107   55   56 1    
   108   55   57 1    
   109   55  121 1    
   110   56  122 1    
   111   56  123 1    
   112   56  124 1    
   113   57   58 2    
   114   57   59 am   BACKBONE|DICT|INTERRES
   115   59   60 1    
   116   59  125 1    
   117   60   61 1    
   118   60   62 1    
   119   60  126 1    
   120   61  127 1    
   121   61  128 1    
   122   61  129 1    
   123   62   63 2    
   124   62   64 am   BACKBONE|DICT|INTERRES
   125   64   65 1    
   126   64  130 1    
   127   65   66 1    
   128   65   69 1    
   129   65  131 1    
   130   66   67 am   BACKBONE|DICT|INTERRES
   131   66   68 2    
   132   67  132 1    
   133   67  133 1    
   134   69   70 1    
   135   69  134 1    
   136   69  135 1    
   137   70   71 1    
   138   71  136 1    
   139   71  137 1    
@<TRIPOS>SUBSTRUCTURE
     1 UNK         1 GROUP             0       ****    0 ROOT    
