@<TRIPOS>MOLECULE
3R137
137   139    1
SMALL
USER_CHARGES


@<TRIPOS>ATOM
      1 CA         25.8106   -7.1439   -0.2854 C.3       0 UNK        -0.2020 
      2 C          26.2342   -5.7226    0.0525 C.2       0 UNK         0.4855 
      3 O          26.7281   -5.4755    1.1527 O.2       0 UNK        -0.5197 
      4 N          26.0391   -4.7832   -0.8823 N.am      1 UNK        -0.4892 
      5 CA         26.4196   -3.3682   -0.7450 C.3       1 UNK         0.0835 
      6 C6         26.6253   -2.6852   -2.1230 C.3       12 UNK        -0.0855 
      7 S7         27.8447   -3.5585   -3.1648 S.3       12 UNK        -0.2931 
      8 C8         29.4124   -2.9110   -2.5053 C.3       12 UNK         0.0378 
      9 C9         30.0193   -1.8676   -3.4286 C.ar      12 UNK        -0.0802 
     10 C10        31.0397   -2.2303   -4.3139 C.ar      12 UNK        -0.0944 
     11 C11        31.6278   -1.2738   -5.1447 C.ar      12 UNK        -0.0787 
     12 C12        31.1679    0.0439   -5.1081 C.ar      12 UNK        -0.0862 
     13 C13        30.1444    0.4193   -4.2340 C.ar      12 UNK        -0.0733 
     14 C14        29.5839   -0.5387   -3.3829 C.ar      12 UNK        -0.0832 
     15 C15        29.6589    1.8644   -4.2178 C.3       12 UNK         0.0240 
     16 S16        27.8848    2.0429   -4.6077 S.3       12 UNK        -0.2522 
     17 C17        27.6703    0.9668   -6.0676 C.3       12 UNK        -0.0967 
     18 CA         26.7429   -0.2264   -5.7262 C.3       5 UNK         0.0660 
     19 N          25.3658    0.2295   -5.5087 N.am      5 UNK        -0.4015 
     20 C          24.3471   -0.5215   -5.0747 C.2       4 UNK         0.4946 
     21 O          24.4370   -1.7162   -4.7804 O.2       4 UNK        -0.5353 
     22 CA         22.9843    0.1882   -4.9848 C.3       4 UNK         0.0277 
     23 CB         22.2485    0.1094   -6.3330 C.3       4 UNK        -0.1981 
     24 N          22.1340   -0.3929   -3.9442 N.am      4 UNK        -0.4209 
     25 C          22.3650   -0.2980   -2.6282 C.2       3 UNK         0.4942 
     26 O          23.2800    0.3730   -2.1461 O.2       3 UNK        -0.5208 
     27 CA         21.4223   -1.0666   -1.6857 C.3       3 UNK         0.0250 
     28 CB         20.4418   -2.0197   -2.4028 C.3       3 UNK        -0.1990 
     29 N          22.2324   -1.8402   -0.7474 N.am      3 UNK        -0.4232 
     30 C          22.3156   -1.6319    0.5722 C.2       2 UNK         0.4993 
     31 O          21.6672   -0.7778    1.1788 O.2       2 UNK        -0.5286 
     32 CA         23.2724   -2.5438    1.3606 C.3       2 UNK         0.0209 
     33 CB         22.4854   -3.6535    2.0781 C.3       2 UNK        -0.1931 
     34 N          24.3057   -3.1612    0.5223 N.am      2 UNK        -0.4546 
     35 C          25.4381   -2.5569    0.1326 C.2       1 UNK         0.5154 
     36 O          25.7267   -1.4012    0.4457 O.2       1 UNK        -0.5181 
     37 C          26.8259   -1.3127   -6.8158 C.2       5 UNK         0.5014 
     38 O          26.0275   -1.3025   -7.7569 O.2       5 UNK        -0.5248 
     39 N          27.8111   -2.2118   -6.6738 N.am      6 UNK        -0.4434 
     40 CA         28.0481   -3.3518   -7.5664 C.3       6 UNK         0.0363 
     41 CB         29.1669   -4.2293   -6.9826 C.3       6 UNK        -0.1936 
     42 C          28.3640   -2.9606   -9.0224 C.2       6 UNK         0.5081 
     43 O          27.9987   -3.7003   -9.9370 O.2       6 UNK        -0.5248 
     44 N          29.0034   -1.8027   -9.2130 N.am      7 UNK        -0.4718 
     45 CA         29.2625   -1.1673  -10.4994 C.3       7 UNK         0.0273 
     46 CB         30.4476   -1.8471  -11.2116 C.3       7 UNK        -0.1935 
     47 C          29.5117    0.3283  -10.2656 C.2       7 UNK         0.5018 
     48 O          29.7843    0.7407   -9.1335 O.2       7 UNK        -0.5186 
     49 N          29.4011    1.1125  -11.3443 N.am      8 UNK        -0.4240 
     50 CA         29.6328    2.5586  -11.3603 C.3       8 UNK         0.0235 
     51 CB         29.1002    3.1267  -12.6872 C.3       8 UNK        -0.2000 
     52 C          31.1181    2.9182  -11.1792 C.2       8 UNK         0.4941 
     53 O          31.9881    2.0676  -11.3818 O.2       8 UNK        -0.5273 
     54 N          31.3719    4.1857  -10.8170 N.am      9 UNK        -0.4262 
     55 CA         32.6939    4.8036  -10.6252 C.3       9 UNK         0.0264 
     56 CB         33.4108    4.9725  -11.9823 C.3       9 UNK        -0.1955 
     57 C          33.5582    4.0658   -9.5831 C.2       9 UNK         0.5031 
     58 O          34.7446    3.8265   -9.8192 O.2       9 UNK        -0.5390 
     59 N          32.9227    3.6751   -8.4666 N.am      10 UNK        -0.4204 
     60 CA         33.4796    2.8777   -7.3638 C.3       10 UNK         0.0237 
     61 CB         34.4961    3.7097   -6.5530 C.3       10 UNK        -0.1985 
     62 C          34.0502    1.5165   -7.8200 C.2       10 UNK         0.4970 
     63 O          35.0294    1.0395   -7.2445 O.2       10 UNK        -0.4914 
     64 N          33.4332    0.9341   -8.8570 N.am      11 UNK        -0.4285 
     65 CA         33.8535   -0.2897   -9.5565 C.3       11 UNK         0.1007 
     66 C          35.1749   -0.1441  -10.3726 C.2       11 UNK         0.5703 
     67 N          35.6867    1.0582  -10.6154 N.am      11 UNK        -0.7361 
     68 O          35.7366   -1.1390  -10.8256 O.2       11 UNK        -0.4986 
     69 C69        33.8327   -1.5686   -8.6650 C.3       12 UNK        -0.0947 
     70 S70        32.2519   -1.8094   -7.7828 S.3       12 UNK        -0.2240 
     71 C71        32.7873   -1.6405   -6.0556 C.3       12 UNK         0.0194 
     72 H72        25.3887   -7.2171   -1.2877 H         1 UNK         0.0906 
     73 H73        26.6686   -7.8134   -0.2299 H         1 UNK         0.0906 
     74 H74        25.0608   -7.4914    0.4247 H         1 UNK         0.0906 
     75 H75        25.6575   -5.0445   -1.7812 H         1 UNK         0.3140 
     76 H76        27.3753   -3.3344   -0.2174 H         1 UNK         0.1085 
     77 H77        26.9399   -1.6467   -2.0051 H         1 UNK         0.0836 
     78 H78        25.6813   -2.6510   -2.6685 H         1 UNK         0.0836 
     79 H79        30.1032   -3.7459   -2.3774 H         1 UNK         0.0731 
     80 H80        29.2693   -2.4890   -1.5098 H         1 UNK         0.0731 
     81 H81        31.3894   -3.2534   -4.3432 H         1 UNK         0.1312 
     82 H82        31.6153    0.7766   -5.7635 H         1 UNK         0.1406 
     83 H83        28.7996   -0.2492   -2.6968 H         1 UNK         0.1631 
     84 H84        30.2260    2.4693   -4.9272 H         1 UNK         0.0717 
     85 H85        29.8480    2.2929   -3.2328 H         1 UNK         0.0717 
     86 H86        27.2557    1.5588   -6.8859 H         1 UNK         0.0934 
     87 H87        28.6452    0.6302   -6.4244 H         1 UNK         0.0934 
     88 H88        27.0771   -0.6826   -4.7918 H         1 UNK         0.0739 
     89 H89        25.1883    1.1952   -5.7405 H         1 UNK         0.3093 
     90 H90        23.1514    1.2389   -4.7369 H         1 UNK         0.0818 
     91 H91        22.8407    0.5611   -7.1301 H         1 UNK         0.0819 
     92 H92        22.0495   -0.9231   -6.6236 H         1 UNK         0.0819 
     93 H93        21.2964    0.6395   -6.2991 H         1 UNK         0.0819 
     94 H94        21.3832   -0.9905   -4.2566 H         1 UNK         0.3041 
     95 H95        20.8339   -0.3153   -1.1549 H         1 UNK         0.0784 
     96 H96        19.7666   -1.4752   -3.0643 H         1 UNK         0.0793 
     97 H97        20.9617   -2.7746   -2.9946 H         1 UNK         0.0793 
     98 H98        19.8154   -2.5453   -1.6815 H         1 UNK         0.0793 
     99 H99        22.8442   -2.5328   -1.1534 H         1 UNK         0.3024 
    100 H100       23.7581   -1.9242    2.1185 H         1 UNK         0.1171 
    101 H101       21.9733   -4.3084    1.3720 H         1 UNK         0.0786 
    102 H102       23.1407   -4.2694    2.6944 H         1 UNK         0.0786 
    103 H103       21.7271   -3.2298    2.7382 H         1 UNK         0.0786 
    104 H104       24.1616   -4.1204    0.2407 H         1 UNK         0.2977 
    105 H105       28.4205   -2.1419   -5.8699 H         1 UNK         0.3127 
    106 H106       27.1300   -3.9428   -7.5851 H         1 UNK         0.0770 
    107 H107       30.1038   -3.6802   -6.8904 H         1 UNK         0.0814 
    108 H108       29.3576   -5.0942   -7.6194 H         1 UNK         0.0814 
    109 H109       28.9017   -4.6072   -5.9951 H         1 UNK         0.0814 
    110 H110       29.2662   -1.2369   -8.4149 H         1 UNK         0.2983 
    111 H111       28.3677   -1.2606  -11.1190 H         1 UNK         0.0947 
    112 H112       30.7247   -1.3168  -12.1234 H         1 UNK         0.0806 
    113 H113       30.2024   -2.8700  -11.4971 H         1 UNK         0.0806 
    114 H114       31.3292   -1.8876  -10.5752 H         1 UNK         0.0806 
    115 H115       29.2098    0.6821  -12.2371 H         1 UNK         0.3000 
    116 H116       29.0699    3.0001  -10.5347 H         1 UNK         0.0850 
    117 H117       29.6362    2.7173  -13.5447 H         1 UNK         0.0810 
    118 H118       29.2075    4.2116  -12.7260 H         1 UNK         0.0810 
    119 H119       28.0404    2.9060  -12.8172 H         1 UNK         0.0810 
    120 H120       30.5835    4.8027  -10.6736 H         1 UNK         0.3040 
    121 H121       32.5167    5.8012  -10.2204 H         1 UNK         0.0766 
    122 H122       33.6606    4.0098  -12.4299 H         1 UNK         0.0812 
    123 H123       32.7930    5.5221  -12.6924 H         1 UNK         0.0812 
    124 H124       34.3422    5.5282  -11.8668 H         1 UNK         0.0812 
    125 H125       31.9419    3.9066   -8.3862 H         1 UNK         0.3205 
    126 H126       32.6432    2.6494   -6.7030 H         1 UNK         0.0754 
    127 H127       34.8151    3.1755   -5.6571 H         1 UNK         0.0769 
    128 H128       34.0644    4.6558   -6.2267 H         1 UNK         0.0769 
    129 H129       35.3911    3.9323   -7.1352 H         1 UNK         0.0769 
    130 H130       32.6645    1.4209   -9.2990 H         1 UNK         0.2981 
    131 H131       33.0932   -0.4277  -10.3241 H         1 UNK         0.0541 
    132 H132       36.5344    1.1290  -11.1544 H         1 UNK         0.3459 
    133 H133       35.2417    1.9006  -10.2672 H         1 UNK         0.3459 
    134 H134       34.6589   -1.5530   -7.9529 H         1 UNK         0.0612 
    135 H135       33.9895   -2.4557   -9.2806 H         1 UNK         0.0612 
    136 H136       33.5530   -0.8685   -5.9761 H         1 UNK         0.0624 
    137 H137       33.2557   -2.5721   -5.7349 H         1 UNK         0.0624 
@<TRIPOS>BOND
     1    1    2 1    
     2    1   72 1    
     3    1   73 1    
     4    1   74 1    
     5    2    3 2    
     6    2    4 am   BACKBONE|DICT|INTERRES
     7    4    5 1    
     8    4   75 1    
     9    5    6 1    
    10    5   35 1    
    11    5   76 1    
    12    6    7 1    
    13    6   77 1    
    14    6   78 1    
    15    7    8 1    
    16    8    9 1    
    17    8   79 1    
    18    8   80 1    
    19    9   10 ar   
    20    9   14 ar   
    21   10   11 ar   
    22   10   81 1    
    23   11   12 ar   
    24   11   71 1    
    25   12   13 ar   
    26   12   82 1    
    27   13   14 ar   
    28   13   15 1    
    29   14   83 1    
    30   15   16 1    
    31   15   84 1    
    32   15   85 1    
    33   16   17 1    
    34   17   18 1    
    35   17   86 1    
    36   17   87 1    
    37   18   19 1    
    38   18   37 1    
    39   18   88 1    
    40   19   20 am   BACKBONE|DICT|INTERRES
    41   19   89 1    
    42   20   21 2    
    43   20   22 1    
    44   22   23 1    
    45   22   24 1    
    46   22   90 1    
    47   23   91 1    
    48   23   92 1    
    49   23   93 1    
    50   24   25 am   BACKBONE|DICT|INTERRES
    51   24   94 1    
    52   25   26 2    
    53   25   27 1    
    54   27   28 1    
    55   27   29 1    
    56   27   95 1    
    57   28   96 1    
    58   28   97 1    
    59   28   98 1    
    60   29   30 am   BACKBONE|DICT|INTERRES
    61   29   99 1    
    62   30   31 2    
    63   30   32 1    
    64   32   33 1    
    65   32   34 1    
    66   32  100 1    
    67   33  101 1    
    68   33  102 1    
    69   33  103 1    
    70   34   35 am   BACKBONE|DICT|INTERRES
    71   34  104 1    
    72   35   36 2    
    73   37   38 2    
    74   37   39 am   BACKBONE|DICT|INTERRES
    75   39   40 1    
    76   39  105 1    
    77   40   41 1    
    78   40   42 1    
    79   40  106 1    
    80   41  107 1    
    81   41  108 1    
    82   41  109 1    
    83   42   43 2    
    84   42   44 am   BACKBONE|DICT|INTERRES
    85   44   45 1    
    86   44  110 1    
    87   45   46 1    
    88   45   47 1    
    89   45  111 1    
    90   46  112 1    
    91   46  113 1    
    92   46  114 1    
    93   47   48 2    
    94   47   49 am   BACKBONE|DICT|INTERRES
    95   49   50 1    
    96   49  115 1    
    97   50   51 1    
    98   50   52 1    
    99   50  116 1    
   100   51  117 1    
   101   51  118 1    
   102   51  119 1    
   103   52   53 2    
   104   52   54 am   BACKBONE|DICT|INTERRES
   105   54   55 1    
   106   54  120 1    
   107   55   56 1    
   108   55   57 1    
   109   55  121 1    
   110   56  122 1    
   111   56  123 1    
   112   56  124 1    
   113   57   58 2    
   114   57   59 am   BACKBONE|DICT|INTERRES
   115   59   60 1    
   116   59  125 1    
   117   60   61 1    
   118   60   62 1    
   119   60  126 1    
   120   61  127 1    
   121   61  128 1    
   122   61  129 1    
   123   62   63 2    
   124   62   64 am   BACKBONE|DICT|INTERRES
   125   64   65 1    
   126   64  130 1    
   127   65   66 1    
   128   65   69 1    
   129   65  131 1    
   130   66   67 am   BACKBONE|DICT|INTERRES
   131   66   68 2    
   132   67  132 1    
   133   67  133 1    
   134   69   70 1    
   135   69  134 1    
   136   69  135 1    
   137   70   71 1    
   138   71  136 1    
   139   71  137 1    
@<TRIPOS>SUBSTRUCTURE
     1 UNK         1 GROUP             0       ****    0 ROOT    
