@<TRIPOS>MOLECULE
3R137
137   139    1
SMALL
USER_CHARGES


@<TRIPOS>ATOM
      1 CA         29.5963   -5.9217   -5.0040 C.3       0 UNK        -0.2020 
      2 C          28.5954   -5.8949   -3.8586 C.2       0 UNK         0.4855 
      3 O          28.0722   -6.9427   -3.4793 O.2       0 UNK        -0.5197 
      4 N          28.3202   -4.7085   -3.3083 N.am      1 UNK        -0.4892 
      5 CA         27.3541   -4.4719   -2.2397 C.3       1 UNK         0.0835 
      6 C6         27.8946   -4.8838   -0.8380 C.3       12 UNK        -0.0855 
      7 S7         28.8971   -3.6603    0.0804 S.3       12 UNK        -0.2931 
      8 C8         30.5062   -3.7307   -0.7742 C.3       12 UNK         0.0378 
      9 C9         30.6715   -2.6092   -1.7943 C.ar      12 UNK        -0.0802 
     10 C10        31.0309   -2.8957   -3.1137 C.ar      12 UNK        -0.0944 
     11 C11        31.2283   -1.8658   -4.0395 C.ar      12 UNK        -0.0787 
     12 C12        31.0658   -0.5361   -3.6358 C.ar      12 UNK        -0.0862 
     13 C13        30.6958   -0.2333   -2.3198 C.ar      12 UNK        -0.0733 
     14 C14        30.5095   -1.2756   -1.4069 C.ar      12 UNK        -0.0832 
     15 C15        30.5127    1.2081   -1.8480 C.3       12 UNK         0.0240 
     16 S16        29.5826    2.2805   -2.9967 S.3       12 UNK        -0.2522 
     17 C17        28.0597    1.3262   -3.3164 C.3       12 UNK        -0.0967 
     18 CA         27.7956    1.2164   -4.8421 C.3       5 UNK         0.0660 
     19 N          27.3505   -0.1180   -5.2435 N.am      5 UNK        -0.4015 
     20 C          27.2473   -0.5312   -6.5147 C.2       4 UNK         0.4946 
     21 O          27.6002    0.1381   -7.4873 O.2       4 UNK        -0.5353 
     22 CA         26.6029   -1.9078   -6.7390 C.3       4 UNK         0.0277 
     23 CB         27.6465   -3.0285   -6.6033 C.3       4 UNK        -0.1981 
     24 N          25.4891   -2.1441   -5.8149 N.am      4 UNK        -0.4209 
     25 C          24.3209   -1.4852   -5.8601 C.2       3 UNK         0.4942 
     26 O          24.0411   -0.6502   -6.7181 O.2       3 UNK        -0.5208 
     27 CA         23.3098   -1.7706   -4.7370 C.3       3 UNK         0.0250 
     28 CB         22.4931   -3.0341   -5.0505 C.3       3 UNK        -0.1990 
     29 N          23.9401   -1.9039   -3.4217 N.am      3 UNK        -0.4232 
     30 C          24.5916   -0.9197   -2.7845 C.2       2 UNK         0.4993 
     31 O          24.6978    0.2269   -3.2169 O.2       2 UNK        -0.5286 
     32 CA         25.3004   -1.2961   -1.4734 C.3       2 UNK         0.0209 
     33 CB         24.3372   -1.1793   -0.2818 C.3       2 UNK        -0.1931 
     34 N          25.8965   -2.6372   -1.4996 N.am      2 UNK        -0.4546 
     35 C          26.8511   -3.0205   -2.3590 C.2       1 UNK         0.5154 
     36 O          27.3033   -2.2828   -3.2422 O.2       1 UNK        -0.5181 
     37 C          26.8326    2.3134   -5.3436 C.2       5 UNK         0.5014 
     38 O          27.2852    3.2811   -5.9554 O.2       5 UNK        -0.5248 
     39 N          25.5222    2.1205   -5.1257 N.am      6 UNK        -0.4434 
     40 CA         24.4487    3.0048   -5.5943 C.3       6 UNK         0.0363 
     41 CB         23.1051    2.5369   -5.0138 C.3       6 UNK        -0.1936 
     42 C          24.3666    3.1107   -7.1276 C.2       6 UNK         0.5081 
     43 O          24.1039    4.1962   -7.6453 O.2       6 UNK        -0.5248 
     44 N          24.6295    1.9984   -7.8273 N.am      7 UNK        -0.4718 
     45 CA         24.7475    1.9304   -9.2876 C.3       7 UNK         0.0273 
     46 CB         24.6318    0.4619   -9.7295 C.3       7 UNK        -0.1935 
     47 C          26.0463    2.5530   -9.8388 C.2       7 UNK         0.5018 
     48 O          26.1646    2.6864  -11.0577 O.2       7 UNK        -0.5186 
     49 N          26.9889    2.9078   -8.9515 N.am      8 UNK        -0.4240 
     50 CA         28.3168    3.4634   -9.2257 C.3       8 UNK         0.0235 
     51 CB         28.2128    4.8609   -9.8739 C.3       8 UNK        -0.2000 
     52 C          29.2160    2.4909  -10.0107 C.2       8 UNK         0.4941 
     53 O          29.9331    2.9135  -10.9199 O.2       8 UNK        -0.5273 
     54 N          29.1774    1.2024   -9.6364 N.am      9 UNK        -0.4262 
     55 CA         30.0001    0.1443  -10.2329 C.3       9 UNK         0.0264 
     56 CB         29.4589   -1.2268   -9.7982 C.3       9 UNK        -0.1955 
     57 C          31.4935    0.2553   -9.8770 C.2       9 UNK         0.5031 
     58 O          32.3234   -0.2870  -10.6087 O.2       9 UNK        -0.5390 
     59 N          31.8054    0.9226   -8.7542 N.am      10 UNK        -0.4204 
     60 CA         33.1263    1.1938   -8.1631 C.3       10 UNK         0.0237 
     61 CB         34.0142    2.0172   -9.1169 C.3       10 UNK        -0.1985 
     62 C          33.8725   -0.0502   -7.6455 C.2       10 UNK         0.4970 
     63 O          34.4338    0.0135   -6.5530 O.2       10 UNK        -0.4914 
     64 N          33.8524   -1.1354   -8.4291 N.am      11 UNK        -0.4285 
     65 CA         34.3779   -2.4866   -8.1665 C.3       11 UNK         0.1007 
     66 C          35.8839   -2.6083   -7.7752 C.2       11 UNK         0.5703 
     67 N          36.7062   -1.5869   -7.9815 N.am      11 UNK        -0.7361 
     68 O          36.3304   -3.6626   -7.3280 O.2       11 UNK        -0.4986 
     69 C69        33.4074   -3.3594   -7.3165 C.3       12 UNK        -0.0947 
     70 S70        33.2863   -2.9240   -5.5484 S.3       12 UNK        -0.2240 
     71 C71        31.6196   -2.1973   -5.4720 C.3       12 UNK         0.0194 
     72 H72        30.5129   -6.4207   -4.6904 H         1 UNK         0.0906 
     73 H73        29.1829   -6.4685   -5.8510 H         1 UNK         0.0906 
     74 H74        29.8522   -4.9208   -5.3456 H         1 UNK         0.0906 
     75 H75        28.7292   -3.8508   -3.6603 H         1 UNK         0.3140 
     76 H76        26.4846   -5.0972   -2.4559 H         1 UNK         0.1085 
     77 H77        27.0441   -5.1195   -0.1965 H         1 UNK         0.0836 
     78 H78        28.4538   -5.8185   -0.9024 H         1 UNK         0.0836 
     79 H79        30.6364   -4.7097   -1.2380 H         1 UNK         0.0731 
     80 H80        31.2985   -3.6378   -0.0303 H         1 UNK         0.0731 
     81 H81        31.1816   -3.9216   -3.4193 H         1 UNK         0.1312 
     82 H82        31.2246    0.2644   -4.3450 H         1 UNK         0.1406 
     83 H83        30.2393   -1.0523   -0.3836 H         1 UNK         0.1631 
     84 H84        31.4973    1.6471   -1.6827 H         1 UNK         0.0717 
     85 H85        30.0016    1.2312   -0.8843 H         1 UNK         0.0717 
     86 H86        28.1622    0.3344   -2.8748 H         1 UNK         0.0934 
     87 H87        27.2270    1.7867   -2.7805 H         1 UNK         0.0934 
     88 H88        28.7397    1.3661   -5.3714 H         1 UNK         0.0739 
     89 H89        27.1050   -0.7658   -4.5009 H         1 UNK         0.3093 
     90 H90        26.2076   -1.9318   -7.7566 H         1 UNK         0.0818 
     91 H91        27.1924   -4.0136   -6.7108 H         1 UNK         0.0819 
     92 H92        28.4120   -2.9424   -7.3742 H         1 UNK         0.0819 
     93 H93        28.1552   -2.9935   -5.6410 H         1 UNK         0.0819 
     94 H94        25.6581   -2.7807   -5.0502 H         1 UNK         0.3041 
     95 H95        22.6219   -0.9236   -4.6907 H         1 UNK         0.0784 
     96 H96        21.9997   -2.9476   -6.0199 H         1 UNK         0.0793 
     97 H97        23.1194   -3.9265   -5.0824 H         1 UNK         0.0793 
     98 H98        21.7131   -3.1970   -4.3064 H         1 UNK         0.0793 
     99 H99        23.9007   -2.8123   -2.9834 H         1 UNK         0.3024 
    100 H100       26.1118   -0.5787   -1.3293 H         1 UNK         0.1171 
    101 H101       24.8539   -1.3474    0.6634 H         1 UNK         0.0786 
    102 H102       23.8958   -0.1826   -0.2341 H         1 UNK         0.0786 
    103 H103       23.5178   -1.8959   -0.3498 H         1 UNK         0.0786 
    104 H104       25.5831   -3.2875   -0.7931 H         1 UNK         0.2977 
    105 H105       25.2336    1.3223   -4.5601 H         1 UNK         0.3127 
    106 H106       24.6573    4.0045   -5.2074 H         1 UNK         0.0770 
    107 H107       23.1234    2.5326   -3.9238 H         1 UNK         0.0814 
    108 H108       22.8518    1.5303   -5.3478 H         1 UNK         0.0814 
    109 H109       22.2942    3.1979   -5.3226 H         1 UNK         0.0814 
    110 H110       24.7478    1.1237   -7.3239 H         1 UNK         0.2983 
    111 H111       23.9147    2.4859   -9.7242 H         1 UNK         0.0947 
    112 H112       25.4443   -0.1426   -9.3255 H         1 UNK         0.0806 
    113 H113       24.6686    0.3734  -10.8161 H         1 UNK         0.0806 
    114 H114       23.6902    0.0212   -9.4017 H         1 UNK         0.0806 
    115 H115       26.7913    2.7468   -7.9702 H         1 UNK         0.3000 
    116 H116       28.7943    3.5920   -8.2533 H         1 UNK         0.0850 
    117 H117       27.5823    5.5252   -9.2828 H         1 UNK         0.0810 
    118 H118       27.7987    4.8126  -10.8814 H         1 UNK         0.0810 
    119 H119       29.1946    5.3297   -9.9497 H         1 UNK         0.0810 
    120 H120       28.5470    0.9205   -8.8855 H         1 UNK         0.3040 
    121 H121       29.9122    0.2196  -11.3188 H         1 UNK         0.0766 
    122 H122       29.9924   -2.0349  -10.3006 H         1 UNK         0.0812 
    123 H123       28.4013   -1.3345  -10.0402 H         1 UNK         0.0812 
    124 H124       29.5758   -1.3778   -8.7250 H         1 UNK         0.0812 
    125 H125       31.0240    1.2845   -8.2261 H         1 UNK         0.3205 
    126 H126       32.9278    1.8172   -7.2895 H         1 UNK         0.0754 
    127 H127       34.9477    2.3028   -8.6300 H         1 UNK         0.0769 
    128 H128       33.5157    2.9362   -9.4257 H         1 UNK         0.0769 
    129 H129       34.2761    1.4607  -10.0173 H         1 UNK         0.0769 
    130 H130       33.3852   -1.0209   -9.3263 H         1 UNK         0.2981 
    131 H131       34.3642   -2.9414   -9.1575 H         1 UNK         0.0541 
    132 H132       37.6805   -1.6805   -7.7421 H         1 UNK         0.3459 
    133 H133       36.3532   -0.7143   -8.3394 H         1 UNK         0.3459 
    134 H134       32.4117   -3.3311   -7.7614 H         1 UNK         0.0612 
    135 H135       33.7108   -4.4061   -7.3716 H         1 UNK         0.0612 
    136 H136       30.8952   -2.8951   -5.8913 H         1 UNK         0.0624 
    137 H137       31.5878   -1.3056   -6.0995 H         1 UNK         0.0624 
@<TRIPOS>BOND
     1    1    2 1    
     2    1   72 1    
     3    1   73 1    
     4    1   74 1    
     5    2    3 2    
     6    2    4 am   BACKBONE|DICT|INTERRES
     7    4    5 1    
     8    4   75 1    
     9    5    6 1    
    10    5   35 1    
    11    5   76 1    
    12    6    7 1    
    13    6   77 1    
    14    6   78 1    
    15    7    8 1    
    16    8    9 1    
    17    8   79 1    
    18    8   80 1    
    19    9   10 ar   
    20    9   14 ar   
    21   10   11 ar   
    22   10   81 1    
    23   11   12 ar   
    24   11   71 1    
    25   12   13 ar   
    26   12   82 1    
    27   13   14 ar   
    28   13   15 1    
    29   14   83 1    
    30   15   16 1    
    31   15   84 1    
    32   15   85 1    
    33   16   17 1    
    34   17   18 1    
    35   17   86 1    
    36   17   87 1    
    37   18   19 1    
    38   18   37 1    
    39   18   88 1    
    40   19   20 am   BACKBONE|DICT|INTERRES
    41   19   89 1    
    42   20   21 2    
    43   20   22 1    
    44   22   23 1    
    45   22   24 1    
    46   22   90 1    
    47   23   91 1    
    48   23   92 1    
    49   23   93 1    
    50   24   25 am   BACKBONE|DICT|INTERRES
    51   24   94 1    
    52   25   26 2    
    53   25   27 1    
    54   27   28 1    
    55   27   29 1    
    56   27   95 1    
    57   28   96 1    
    58   28   97 1    
    59   28   98 1    
    60   29   30 am   BACKBONE|DICT|INTERRES
    61   29   99 1    
    62   30   31 2    
    63   30   32 1    
    64   32   33 1    
    65   32   34 1    
    66   32  100 1    
    67   33  101 1    
    68   33  102 1    
    69   33  103 1    
    70   34   35 am   BACKBONE|DICT|INTERRES
    71   34  104 1    
    72   35   36 2    
    73   37   38 2    
    74   37   39 am   BACKBONE|DICT|INTERRES
    75   39   40 1    
    76   39  105 1    
    77   40   41 1    
    78   40   42 1    
    79   40  106 1    
    80   41  107 1    
    81   41  108 1    
    82   41  109 1    
    83   42   43 2    
    84   42   44 am   BACKBONE|DICT|INTERRES
    85   44   45 1    
    86   44  110 1    
    87   45   46 1    
    88   45   47 1    
    89   45  111 1    
    90   46  112 1    
    91   46  113 1    
    92   46  114 1    
    93   47   48 2    
    94   47   49 am   BACKBONE|DICT|INTERRES
    95   49   50 1    
    96   49  115 1    
    97   50   51 1    
    98   50   52 1    
    99   50  116 1    
   100   51  117 1    
   101   51  118 1    
   102   51  119 1    
   103   52   53 2    
   104   52   54 am   BACKBONE|DICT|INTERRES
   105   54   55 1    
   106   54  120 1    
   107   55   56 1    
   108   55   57 1    
   109   55  121 1    
   110   56  122 1    
   111   56  123 1    
   112   56  124 1    
   113   57   58 2    
   114   57   59 am   BACKBONE|DICT|INTERRES
   115   59   60 1    
   116   59  125 1    
   117   60   61 1    
   118   60   62 1    
   119   60  126 1    
   120   61  127 1    
   121   61  128 1    
   122   61  129 1    
   123   62   63 2    
   124   62   64 am   BACKBONE|DICT|INTERRES
   125   64   65 1    
   126   64  130 1    
   127   65   66 1    
   128   65   69 1    
   129   65  131 1    
   130   66   67 am   BACKBONE|DICT|INTERRES
   131   66   68 2    
   132   67  132 1    
   133   67  133 1    
   134   69   70 1    
   135   69  134 1    
   136   69  135 1    
   137   70   71 1    
   138   71  136 1    
   139   71  137 1    
@<TRIPOS>SUBSTRUCTURE
     1 UNK         1 GROUP             0       ****    0 ROOT    
