@<TRIPOS>MOLECULE
3R137
137   139    1
SMALL
USER_CHARGES


@<TRIPOS>ATOM
      1 CA         26.9912   -6.0194   -5.4550 C.3       0 UNK        -0.2020 
      2 C          26.6856   -5.4268   -4.0851 C.2       0 UNK         0.4855 
      3 O          25.5185   -5.2092   -3.7528 O.2       0 UNK        -0.5197 
      4 N          27.7235   -5.1500   -3.2858 N.am      1 UNK        -0.4892 
      5 CA         27.6297   -4.4618   -1.9915 C.3       1 UNK         0.0835 
      6 C6         28.9500   -4.5237   -1.1663 C.3       12 UNK        -0.0855 
      7 S7         30.5007   -4.5310   -2.1470 S.3       12 UNK        -0.2931 
      8 C8         31.5851   -3.3984   -1.2178 C.3       12 UNK         0.0378 
      9 C9         31.7593   -2.0882   -1.9676 C.ar      12 UNK        -0.0802 
     10 C10        32.7694   -1.9607   -2.9245 C.ar      12 UNK        -0.0944 
     11 C11        32.9200   -0.7743   -3.6551 C.ar      12 UNK        -0.0787 
     12 C12        32.0480    0.2901   -3.3989 C.ar      12 UNK        -0.0862 
     13 C13        31.0437    0.1858   -2.4306 C.ar      12 UNK        -0.0733 
     14 C14        30.9104   -1.0098   -1.7142 C.ar      12 UNK        -0.0832 
     15 C15        30.1271    1.3762   -2.1573 C.3       12 UNK         0.0240 
     16 S16        28.3923    0.8740   -1.9240 S.3       12 UNK        -0.2522 
     17 C17        27.4736    2.1062   -2.8976 C.3       12 UNK        -0.0967 
     18 CA         27.5844    1.9342   -4.4379 C.3       5 UNK         0.0660 
     19 N          27.5372    0.5409   -4.8935 N.am      5 UNK        -0.4015 
     20 C          27.7754    0.1409   -6.1523 C.2       4 UNK         0.4946 
     21 O          28.1211    0.8937   -7.0624 O.2       4 UNK        -0.5353 
     22 CA         27.5331   -1.3409   -6.4700 C.3       4 UNK         0.0277 
     23 CB         28.7817   -2.1797   -6.1541 C.3       4 UNK        -0.1981 
     24 N          26.3630   -1.8590   -5.7579 N.am      4 UNK        -0.4209 
     25 C          25.1017   -1.4998   -6.0504 C.2       3 UNK         0.4942 
     26 O          24.8044   -0.7611   -6.9881 O.2       3 UNK        -0.5208 
     27 CA         23.9840   -1.9980   -5.1197 C.3       3 UNK         0.0250 
     28 CB         23.4063   -3.3277   -5.6288 C.3       3 UNK        -0.1990 
     29 N          24.4234   -2.1321   -3.7286 N.am      3 UNK        -0.4232 
     30 C          24.7647   -1.0907   -2.9524 C.2       2 UNK         0.4993 
     31 O          24.6972    0.0822   -3.3235 O.2       2 UNK        -0.5286 
     32 CA         25.3151   -1.4009   -1.5472 C.3       2 UNK         0.0209 
     33 CB         24.1800   -1.3715   -0.5113 C.3       2 UNK        -0.1931 
     34 N          26.0345   -2.6772   -1.4453 N.am      2 UNK        -0.4546 
     35 C          27.0997   -3.0253   -2.1828 C.2       1 UNK         0.5154 
     36 O          27.6100   -2.2902   -3.0296 O.2       1 UNK        -0.5181 
     37 C          26.5057    2.7818   -5.1382 C.2       5 UNK         0.5014 
     38 O          26.8176    3.8566   -5.6511 O.2       5 UNK        -0.5248 
     39 N          25.2659    2.2669   -5.1633 N.am      6 UNK        -0.4434 
     40 CA         24.1065    2.8907   -5.8072 C.3       6 UNK         0.0363 
     41 CB         22.8412    2.0823   -5.4797 C.3       6 UNK        -0.1936 
     42 C          24.2679    3.0508   -7.3286 C.2       6 UNK         0.5081 
     43 O          23.9023    4.0952   -7.8683 O.2       6 UNK        -0.5248 
     44 N          24.8297    2.0290   -7.9889 N.am      7 UNK        -0.4718 
     45 CA         25.1467    2.0423   -9.4201 C.3       7 UNK         0.0273 
     46 CB         25.3620    0.5953   -9.8940 C.3       7 UNK        -0.1935 
     47 C          26.3779    2.8970   -9.7750 C.2       7 UNK         0.5018 
     48 O          26.5532    3.2202  -10.9507 O.2       7 UNK        -0.5186 
     49 N          27.2160    3.2095   -8.7737 N.am      8 UNK        -0.4240 
     50 CA         28.5496    3.8158   -8.8774 C.3       8 UNK         0.0235 
     51 CB         28.4653    5.2718   -9.3825 C.3       8 UNK        -0.2000 
     52 C          29.5125    2.9349   -9.6998 C.2       8 UNK         0.4941 
     53 O          30.2570    3.4405  -10.5429 O.2       8 UNK        -0.5273 
     54 N          29.4489    1.6214   -9.4530 N.am      9 UNK        -0.4262 
     55 CA         30.2324    0.5937  -10.1315 C.3       9 UNK         0.0264 
     56 CB         29.4098   -0.7065  -10.1543 C.3       9 UNK        -0.1955 
     57 C          31.5706    0.3650   -9.4161 C.2       9 UNK         0.5031 
     58 O          31.7078    0.6822   -8.2304 O.2       9 UNK        -0.5390 
     59 N          32.5208   -0.2521  -10.1303 N.am      10 UNK        -0.4204 
     60 CA         33.8347   -0.6639   -9.6231 C.3       10 UNK         0.0237 
     61 CB         34.7931   -0.8541  -10.8146 C.3       10 UNK        -0.1985 
     62 C          33.7399   -1.9177   -8.7278 C.2       10 UNK         0.4970 
     63 O          34.3190   -2.9560   -9.0513 O.2       10 UNK        -0.4914 
     64 N          32.9813   -1.7901   -7.6333 N.am      11 UNK        -0.4285 
     65 CA         32.7083   -2.8078   -6.6041 C.3       11 UNK         0.1007 
     66 C          31.8197   -3.9985   -7.0837 C.2       11 UNK         0.5703 
     67 N          31.1937   -3.9317   -8.2543 N.am      11 UNK        -0.7361 
     68 O          31.6613   -4.9871   -6.3684 O.2       11 UNK        -0.4986 
     69 C69        33.9934   -3.2912   -5.8662 C.3       12 UNK        -0.0947 
     70 S70        35.0710   -2.0162   -5.1018 S.3       12 UNK        -0.2240 
     71 C71        34.0017   -0.5753   -4.7214 C.3       12 UNK         0.0194 
     72 H72        28.0603   -6.1581   -5.6101 H         1 UNK         0.0906 
     73 H73        26.5028   -6.9881   -5.5633 H         1 UNK         0.0906 
     74 H74        26.6205   -5.3605   -6.2389 H         1 UNK         0.0906 
     75 H75        28.6711   -5.3106   -3.6053 H         1 UNK         0.3140 
     76 H76        26.8746   -5.0044   -1.4140 H         1 UNK         0.1085 
     77 H77        28.9531   -5.4491   -0.5870 H         1 UNK         0.0836 
     78 H78        28.9784   -3.7270   -0.4196 H         1 UNK         0.0836 
     79 H79        32.5576   -3.8783   -1.0838 H         1 UNK         0.0731 
     80 H80        31.2007   -3.2199   -0.2114 H         1 UNK         0.0731 
     81 H81        33.4264   -2.8007   -3.0924 H         1 UNK         0.1312 
     82 H82        32.1588    1.2115   -3.9554 H         1 UNK         0.1406 
     83 H83        30.1343   -1.1097   -0.9678 H         1 UNK         0.1631 
     84 H84        30.1925    2.0971   -2.9739 H         1 UNK         0.0717 
     85 H85        30.4701    1.8929   -1.2595 H         1 UNK         0.0717 
     86 H86        26.4341    2.0327   -2.5714 H         1 UNK         0.0934 
     87 H87        27.8039    3.1046   -2.6042 H         1 UNK         0.0934 
     88 H88        28.5551    2.3269   -4.7477 H         1 UNK         0.0739 
     89 H89        27.3016   -0.1524   -4.1952 H         1 UNK         0.3093 
     90 H90        27.3356   -1.4231   -7.5409 H         1 UNK         0.0818 
     91 H91        29.0784   -2.1040   -5.1078 H         1 UNK         0.0819 
     92 H92        28.6261   -3.2333   -6.3855 H         1 UNK         0.0819 
     93 H93        29.6289   -1.8370   -6.7488 H         1 UNK         0.0819 
     94 H94        26.5433   -2.3965   -4.9184 H         1 UNK         0.3041 
     95 H95        23.1823   -1.2566   -5.1410 H         1 UNK         0.0784 
     96 H96        22.9704   -3.2035   -6.6214 H         1 UNK         0.0793 
     97 H97        24.1709   -4.1006   -5.7087 H         1 UNK         0.0793 
     98 H98        22.6180   -3.6980   -4.9730 H         1 UNK         0.0793 
     99 H99        24.5397   -3.0725   -3.3720 H         1 UNK         0.3024 
    100 H100       26.0199   -0.6069   -1.2980 H         1 UNK         0.1171 
    101 H101       23.4529   -2.1660   -0.6849 H         1 UNK         0.0786 
    102 H102       23.6418   -0.4228   -0.5500 H         1 UNK         0.0786 
    103 H103       24.5642   -1.4812    0.5032 H         1 UNK         0.0786 
    104 H104       25.6618   -3.3458   -0.7861 H         1 UNK         0.2977 
    105 H105       25.0935    1.3983   -4.6606 H         1 UNK         0.3127 
    106 H106       23.9934    3.8893   -5.3802 H         1 UNK         0.0770 
    107 H107       22.8948    1.0706   -5.8824 H         1 UNK         0.0814 
    108 H108       21.9554    2.5560   -5.9050 H         1 UNK         0.0814 
    109 H109       22.6845    2.0064   -4.4034 H         1 UNK         0.0814 
    110 H110       25.0334    1.1695   -7.4863 H         1 UNK         0.2983 
    111 H111       24.2936    2.4585   -9.9604 H         1 UNK         0.0947 
    112 H112       25.5775    0.5586  -10.9627 H         1 UNK         0.0806 
    113 H113       24.4753   -0.0149   -9.7213 H         1 UNK         0.0806 
    114 H114       26.1980    0.1243   -9.3752 H         1 UNK         0.0806 
    115 H115       26.9734    2.8709   -7.8509 H         1 UNK         0.3000 
    116 H116       28.9504    3.8394   -7.8626 H         1 UNK         0.0850 
    117 H117       29.4421    5.7550   -9.3402 H         1 UNK         0.0810 
    118 H118       27.7841    5.8631   -8.7706 H         1 UNK         0.0810 
    119 H119       28.1219    5.3252  -10.4159 H         1 UNK         0.0810 
    120 H120       28.8916    1.3137   -8.6564 H         1 UNK         0.3040 
    121 H121       30.4289    0.9068  -11.1596 H         1 UNK         0.0766 
    122 H122       28.4466   -0.5560  -10.6429 H         1 UNK         0.0812 
    123 H123       29.2180   -1.0792   -9.1475 H         1 UNK         0.0812 
    124 H124       29.9277   -1.4947  -10.7019 H         1 UNK         0.0812 
    125 H125       32.3143   -0.5074  -11.0861 H         1 UNK         0.3205 
    126 H126       34.2360    0.1410   -9.0031 H         1 UNK         0.0754 
    127 H127       35.7921   -1.1287  -10.4721 H         1 UNK         0.0769 
    128 H128       34.8937    0.0644  -11.3936 H         1 UNK         0.0769 
    129 H129       34.4512   -1.6406  -11.4889 H         1 UNK         0.0769 
    130 H130       32.5029   -0.9007   -7.5145 H         1 UNK         0.2981 
    131 H131       32.0808   -2.3042   -5.8692 H         1 UNK         0.0541 
    132 H132       31.3269   -3.1399   -8.8626 H         1 UNK         0.3459 
    133 H133       30.6175   -4.7054   -8.5453 H         1 UNK         0.3459 
    134 H134       33.7202   -3.9838   -5.0685 H         1 UNK         0.0612 
    135 H135       34.6164   -3.8743   -6.5470 H         1 UNK         0.0612 
    136 H136       33.5475   -0.1971   -5.6365 H         1 UNK         0.0624 
    137 H137       34.6606    0.2225   -4.3739 H         1 UNK         0.0624 
@<TRIPOS>BOND
     1    1    2 1    
     2    1   72 1    
     3    1   73 1    
     4    1   74 1    
     5    2    3 2    
     6    2    4 am   BACKBONE|DICT|INTERRES
     7    4    5 1    
     8    4   75 1    
     9    5    6 1    
    10    5   35 1    
    11    5   76 1    
    12    6    7 1    
    13    6   77 1    
    14    6   78 1    
    15    7    8 1    
    16    8    9 1    
    17    8   79 1    
    18    8   80 1    
    19    9   10 ar   
    20    9   14 ar   
    21   10   11 ar   
    22   10   81 1    
    23   11   12 ar   
    24   11   71 1    
    25   12   13 ar   
    26   12   82 1    
    27   13   14 ar   
    28   13   15 1    
    29   14   83 1    
    30   15   16 1    
    31   15   84 1    
    32   15   85 1    
    33   16   17 1    
    34   17   18 1    
    35   17   86 1    
    36   17   87 1    
    37   18   19 1    
    38   18   37 1    
    39   18   88 1    
    40   19   20 am   BACKBONE|DICT|INTERRES
    41   19   89 1    
    42   20   21 2    
    43   20   22 1    
    44   22   23 1    
    45   22   24 1    
    46   22   90 1    
    47   23   91 1    
    48   23   92 1    
    49   23   93 1    
    50   24   25 am   BACKBONE|DICT|INTERRES
    51   24   94 1    
    52   25   26 2    
    53   25   27 1    
    54   27   28 1    
    55   27   29 1    
    56   27   95 1    
    57   28   96 1    
    58   28   97 1    
    59   28   98 1    
    60   29   30 am   BACKBONE|DICT|INTERRES
    61   29   99 1    
    62   30   31 2    
    63   30   32 1    
    64   32   33 1    
    65   32   34 1    
    66   32  100 1    
    67   33  101 1    
    68   33  102 1    
    69   33  103 1    
    70   34   35 am   BACKBONE|DICT|INTERRES
    71   34  104 1    
    72   35   36 2    
    73   37   38 2    
    74   37   39 am   BACKBONE|DICT|INTERRES
    75   39   40 1    
    76   39  105 1    
    77   40   41 1    
    78   40   42 1    
    79   40  106 1    
    80   41  107 1    
    81   41  108 1    
    82   41  109 1    
    83   42   43 2    
    84   42   44 am   BACKBONE|DICT|INTERRES
    85   44   45 1    
    86   44  110 1    
    87   45   46 1    
    88   45   47 1    
    89   45  111 1    
    90   46  112 1    
    91   46  113 1    
    92   46  114 1    
    93   47   48 2    
    94   47   49 am   BACKBONE|DICT|INTERRES
    95   49   50 1    
    96   49  115 1    
    97   50   51 1    
    98   50   52 1    
    99   50  116 1    
   100   51  117 1    
   101   51  118 1    
   102   51  119 1    
   103   52   53 2    
   104   52   54 am   BACKBONE|DICT|INTERRES
   105   54   55 1    
   106   54  120 1    
   107   55   56 1    
   108   55   57 1    
   109   55  121 1    
   110   56  122 1    
   111   56  123 1    
   112   56  124 1    
   113   57   58 2    
   114   57   59 am   BACKBONE|DICT|INTERRES
   115   59   60 1    
   116   59  125 1    
   117   60   61 1    
   118   60   62 1    
   119   60  126 1    
   120   61  127 1    
   121   61  128 1    
   122   61  129 1    
   123   62   63 2    
   124   62   64 am   BACKBONE|DICT|INTERRES
   125   64   65 1    
   126   64  130 1    
   127   65   66 1    
   128   65   69 1    
   129   65  131 1    
   130   66   67 am   BACKBONE|DICT|INTERRES
   131   66   68 2    
   132   67  132 1    
   133   67  133 1    
   134   69   70 1    
   135   69  134 1    
   136   69  135 1    
   137   70   71 1    
   138   71  136 1    
   139   71  137 1    
@<TRIPOS>SUBSTRUCTURE
     1 UNK         1 GROUP             0       ****    0 ROOT    
