@<TRIPOS>MOLECULE
3R137
137   139    1
SMALL
USER_CHARGES


@<TRIPOS>ATOM
      1 CA         23.5560   -3.5008   -7.9936 C.3       0 UNK        -0.2020 
      2 C          24.0483   -3.4041   -6.5583 C.2       0 UNK         0.4855 
      3 O          23.8647   -2.3690   -5.9204 O.2       0 UNK        -0.5197 
      4 N          24.6449   -4.4848   -6.0337 N.am      1 UNK        -0.4892 
      5 CA         25.3123   -4.5839   -4.7187 C.3       1 UNK         0.0835 
      6 C6         26.5473   -3.6438   -4.5937 C.3       12 UNK        -0.0855 
      7 S7         27.7573   -3.9282   -5.9311 S.3       12 UNK        -0.2931 
      8 C8         29.0682   -4.8625   -5.0820 C.3       12 UNK         0.0378 
      9 C9         30.1637   -3.9420   -4.5654 C.ar      12 UNK        -0.0802 
     10 C10        31.1947   -3.5406   -5.4216 C.ar      12 UNK        -0.0944 
     11 C11        32.2180   -2.7000   -4.9732 C.ar      12 UNK        -0.0787 
     12 C12        32.2069   -2.2810   -3.6374 C.ar      12 UNK        -0.0862 
     13 C13        31.1782   -2.6646   -2.7725 C.ar      12 UNK        -0.0733 
     14 C14        30.1599   -3.5010   -3.2389 C.ar      12 UNK        -0.0832 
     15 C15        31.1760   -2.1606   -1.3358 C.3       12 UNK         0.0240 
     16 S16        29.8401   -0.9647   -1.0051 S.3       12 UNK        -0.2522 
     17 C17        29.9659    0.2115   -2.4015 C.3       12 UNK        -0.0967 
     18 CA         28.7211    0.1128   -3.3242 C.3       5 UNK         0.0660 
     19 N          27.4658    0.4279   -2.6198 N.am      5 UNK        -0.4015 
     20 C          27.1153    1.5536   -1.9834 C.2       4 UNK         0.4946 
     21 O          27.7572    2.6038   -2.0547 O.2       4 UNK        -0.5353 
     22 CA         25.8331    1.4938   -1.1247 C.3       4 UNK         0.0277 
     23 CB         25.5736    2.8083   -0.3638 C.3       4 UNK        -0.1981 
     24 N          24.6291    1.1464   -1.8862 N.am      4 UNK        -0.4209 
     25 C          24.3444   -0.0612   -2.3884 C.2       3 UNK         0.4942 
     26 O          25.1119   -1.0250   -2.3150 O.2       3 UNK        -0.5208 
     27 CA         22.9983   -0.1909   -3.1198 C.3       3 UNK         0.0250 
     28 CB         23.0529    0.5303   -4.4761 C.3       3 UNK        -0.1990 
     29 N          22.6686   -1.5977   -3.3456 N.am      3 UNK        -0.4232 
     30 C          22.1303   -2.4125   -2.4252 C.2       2 UNK         0.4993 
     31 O          21.7119   -2.0265   -1.3325 O.2       2 UNK        -0.5286 
     32 CA         22.0439   -3.9124   -2.7700 C.3       2 UNK         0.0209 
     33 CB         20.6454   -4.2653   -3.3022 C.3       2 UNK        -0.1931 
     34 N          23.0492   -4.3171   -3.7545 N.am      2 UNK        -0.4546 
     35 C          24.3617   -4.4314   -3.5053 C.2       1 UNK         0.5154 
     36 O          24.8289   -4.4303   -2.3654 O.2       1 UNK        -0.5181 
     37 C          28.9349    0.8877   -4.6431 C.2       5 UNK         0.5014 
     38 O          29.4113    0.3011   -5.6148 O.2       5 UNK        -0.5248 
     39 N          28.5574    2.1715   -4.6771 N.am      6 UNK        -0.4434 
     40 CA         28.7263    3.1091   -5.7931 C.3       6 UNK         0.0363 
     41 CB         28.2862    4.5074   -5.3297 C.3       6 UNK        -0.1936 
     42 C          28.0071    2.7242   -7.1019 C.2       6 UNK         0.5081 
     43 O          28.3036    3.3132   -8.1415 O.2       6 UNK        -0.5248 
     44 N          27.0774    1.7611   -7.0402 N.am      7 UNK        -0.4718 
     45 CA         26.3904    1.1890   -8.1998 C.3       7 UNK         0.0273 
     46 CB         25.1784    0.3762   -7.7205 C.3       7 UNK        -0.1935 
     47 C          27.3012    0.3233   -9.0901 C.2       7 UNK         0.5018 
     48 O          27.0007    0.1755  -10.2760 O.2       7 UNK        -0.5186 
     49 N          28.3838   -0.2327   -8.5267 N.am      8 UNK        -0.4240 
     50 CA         29.3956   -0.9741   -9.2771 C.3       8 UNK         0.0235 
     51 CB         30.1520   -1.9117   -8.3262 C.3       8 UNK        -0.2000 
     52 C          30.3700    0.0075   -9.9353 C.2       8 UNK         0.4941 
     53 O          30.8996    0.8791   -9.2454 O.2       8 UNK        -0.5273 
     54 N          30.6443   -0.1764  -11.2337 N.am      9 UNK        -0.4262 
     55 CA         31.5306    0.6836  -12.0327 C.3       9 UNK         0.0264 
     56 CB         31.5151    0.2082  -13.4947 C.3       9 UNK        -0.1955 
     57 C          32.9793    0.7770  -11.5131 C.2       9 UNK         0.5031 
     58 O          33.6481    1.7798  -11.7660 O.2       9 UNK        -0.5390 
     59 N          33.4288   -0.2559  -10.7888 N.am      10 UNK        -0.4204 
     60 CA         34.7296   -0.3088  -10.1238 C.3       10 UNK         0.0237 
     61 CB         35.0692   -1.7772   -9.8155 C.3       10 UNK        -0.1985 
     62 C          34.8086    0.5338   -8.8359 C.2       10 UNK         0.4970 
     63 O          35.9239    0.8638   -8.4293 O.2       10 UNK        -0.4914 
     64 N          33.6640    0.8383   -8.2057 N.am      11 UNK        -0.4285 
     65 CA         33.5852    1.5042   -6.8926 C.3       11 UNK         0.1007 
     66 C          32.7554    2.8173   -6.8990 C.2       11 UNK         0.5703 
     67 N          31.9039    3.0738   -7.8822 N.am      11 UNK        -0.7361 
     68 O          32.9121    3.6411   -6.0009 O.2       11 UNK        -0.4986 
     69 C69        33.0963    0.5313   -5.7860 C.3       12 UNK        -0.0947 
     70 S70        34.2889   -0.8181   -5.4840 S.3       12 UNK        -0.2240 
     71 C71        33.3249   -2.2977   -5.9520 C.3       12 UNK         0.0194 
     72 H72        22.4851   -3.3045   -8.0373 H         1 UNK         0.0906 
     73 H73        24.0636   -2.7599   -8.6108 H         1 UNK         0.0906 
     74 H74        23.7402   -4.4849   -8.4239 H         1 UNK         0.0906 
     75 H75        24.7353   -5.3112   -6.6092 H         1 UNK         0.3140 
     76 H76        25.6801   -5.6092   -4.6532 H         1 UNK         0.1085 
     77 H77        27.0438   -3.7711   -3.6303 H         1 UNK         0.0836 
     78 H78        26.2374   -2.5976   -4.6286 H         1 UNK         0.0836 
     79 H79        28.6462   -5.4609   -4.2730 H         1 UNK         0.0731 
     80 H80        29.4980   -5.5751   -5.7877 H         1 UNK         0.0731 
     81 H81        31.1974   -3.8856   -6.4463 H         1 UNK         0.1312 
     82 H82        32.9937   -1.6440   -3.2603 H         1 UNK         0.1406 
     83 H83        29.3639   -3.7992   -2.5701 H         1 UNK         0.1631 
     84 H84        32.1303   -1.6927   -1.0885 H         1 UNK         0.0717 
     85 H85        31.0684   -3.0072   -0.6564 H         1 UNK         0.0717 
     86 H86        30.0706    1.2192   -1.9962 H         1 UNK         0.0934 
     87 H87        30.8838    0.0298   -2.9614 H         1 UNK         0.0934 
     88 H88        28.6206   -0.9325   -3.6232 H         1 UNK         0.0739 
     89 H89        26.8065   -0.3446   -2.5406 H         1 UNK         0.3093 
     90 H90        25.9965    0.7125   -0.3789 H         1 UNK         0.0818 
     91 H91        24.7144    2.7205    0.3015 H         1 UNK         0.0819 
     92 H92        26.4308    3.0780    0.2548 H         1 UNK         0.0819 
     93 H93        25.3891    3.6401   -1.0448 H         1 UNK         0.0819 
     94 H94        23.9627    1.8927   -2.0252 H         1 UNK         0.3041 
     95 H95        22.2189    0.2662   -2.5062 H         1 UNK         0.0784 
     96 H96        22.1306    0.3899   -5.0401 H         1 UNK         0.0793 
     97 H97        23.1962    1.6042   -4.3518 H         1 UNK         0.0793 
     98 H98        23.8767    0.1599   -5.0854 H         1 UNK         0.0793 
     99 H99        23.0382   -2.0012   -4.2027 H         1 UNK         0.3024 
    100 H100       22.2158   -4.4713   -1.8471 H         1 UNK         0.1171 
    101 H101       20.4201   -3.7364   -4.2292 H         1 UNK         0.0786 
    102 H102       19.8744   -3.9974   -2.5783 H         1 UNK         0.0786 
    103 H103       20.5513   -5.3345   -3.4928 H         1 UNK         0.0786 
    104 H104       22.7605   -4.3381   -4.7220 H         1 UNK         0.2977 
    105 H105       28.1965    2.5566   -3.8049 H         1 UNK         0.3127 
    106 H106       29.7928    3.1447   -6.0190 H         1 UNK         0.0770 
    107 H107       27.2300    4.5263   -5.0581 H         1 UNK         0.0814 
    108 H108       28.4348    5.2473   -6.1176 H         1 UNK         0.0814 
    109 H109       28.8617    4.8386   -4.4650 H         1 UNK         0.0814 
    110 H110       26.8998    1.3335   -6.1437 H         1 UNK         0.2983 
    111 H111       26.0259    2.0123   -8.8183 H         1 UNK         0.0947 
    112 H112       24.6586   -0.0875   -8.5601 H         1 UNK         0.0806 
    113 H113       24.4557    1.0124   -7.2107 H         1 UNK         0.0806 
    114 H114       25.4721   -0.4233   -7.0389 H         1 UNK         0.0806 
    115 H115       28.6072   -0.0150   -7.5608 H         1 UNK         0.3000 
    116 H116       28.9094   -1.5798  -10.0450 H         1 UNK         0.0850 
    117 H117       30.6078   -1.3639   -7.5002 H         1 UNK         0.0810 
    118 H118       29.4825   -2.6572   -7.9006 H         1 UNK         0.0810 
    119 H119       30.9461   -2.4489   -8.8458 H         1 UNK         0.0810 
    120 H120       30.1766   -0.9231  -11.7284 H         1 UNK         0.3040 
    121 H121       31.1159    1.6934  -11.9983 H         1 UNK         0.0766 
    122 H122       30.5091    0.2416  -13.9136 H         1 UNK         0.0812 
    123 H123       31.8876   -0.8124  -13.5919 H         1 UNK         0.0812 
    124 H124       32.1437    0.8449  -14.1192 H         1 UNK         0.0812 
    125 H125       32.8108   -1.0414  -10.6497 H         1 UNK         0.3205 
    126 H126       35.4841    0.0771  -10.8130 H         1 UNK         0.0754 
    127 H127       36.0503   -1.8609   -9.3455 H         1 UNK         0.0769 
    128 H128       35.0960   -2.3786  -10.7244 H         1 UNK         0.0769 
    129 H129       34.3445   -2.2261   -9.1349 H         1 UNK         0.0769 
    130 H130       32.7736    0.6104   -8.6338 H         1 UNK         0.2981 
    131 H131       34.5845    1.8324   -6.6012 H         1 UNK         0.0541 
    132 H132       31.3945    3.9417   -7.8782 H         1 UNK         0.3459 
    133 H133       31.6448    2.3450   -8.5434 H         1 UNK         0.3459 
    134 H134       32.1202    0.1176   -6.0449 H         1 UNK         0.0612 
    135 H135       32.9607    1.0564   -4.8387 H         1 UNK         0.0612 
    136 H136       32.9047   -2.1330   -6.9449 H         1 UNK         0.0624 
    137 H137       34.0162   -3.1358   -6.0454 H         1 UNK         0.0624 
@<TRIPOS>BOND
     1    1    2 1    
     2    1   72 1    
     3    1   73 1    
     4    1   74 1    
     5    2    3 2    
     6    2    4 am   BACKBONE|DICT|INTERRES
     7    4    5 1    
     8    4   75 1    
     9    5    6 1    
    10    5   35 1    
    11    5   76 1    
    12    6    7 1    
    13    6   77 1    
    14    6   78 1    
    15    7    8 1    
    16    8    9 1    
    17    8   79 1    
    18    8   80 1    
    19    9   10 ar   
    20    9   14 ar   
    21   10   11 ar   
    22   10   81 1    
    23   11   12 ar   
    24   11   71 1    
    25   12   13 ar   
    26   12   82 1    
    27   13   14 ar   
    28   13   15 1    
    29   14   83 1    
    30   15   16 1    
    31   15   84 1    
    32   15   85 1    
    33   16   17 1    
    34   17   18 1    
    35   17   86 1    
    36   17   87 1    
    37   18   19 1    
    38   18   37 1    
    39   18   88 1    
    40   19   20 am   BACKBONE|DICT|INTERRES
    41   19   89 1    
    42   20   21 2    
    43   20   22 1    
    44   22   23 1    
    45   22   24 1    
    46   22   90 1    
    47   23   91 1    
    48   23   92 1    
    49   23   93 1    
    50   24   25 am   BACKBONE|DICT|INTERRES
    51   24   94 1    
    52   25   26 2    
    53   25   27 1    
    54   27   28 1    
    55   27   29 1    
    56   27   95 1    
    57   28   96 1    
    58   28   97 1    
    59   28   98 1    
    60   29   30 am   BACKBONE|DICT|INTERRES
    61   29   99 1    
    62   30   31 2    
    63   30   32 1    
    64   32   33 1    
    65   32   34 1    
    66   32  100 1    
    67   33  101 1    
    68   33  102 1    
    69   33  103 1    
    70   34   35 am   BACKBONE|DICT|INTERRES
    71   34  104 1    
    72   35   36 2    
    73   37   38 2    
    74   37   39 am   BACKBONE|DICT|INTERRES
    75   39   40 1    
    76   39  105 1    
    77   40   41 1    
    78   40   42 1    
    79   40  106 1    
    80   41  107 1    
    81   41  108 1    
    82   41  109 1    
    83   42   43 2    
    84   42   44 am   BACKBONE|DICT|INTERRES
    85   44   45 1    
    86   44  110 1    
    87   45   46 1    
    88   45   47 1    
    89   45  111 1    
    90   46  112 1    
    91   46  113 1    
    92   46  114 1    
    93   47   48 2    
    94   47   49 am   BACKBONE|DICT|INTERRES
    95   49   50 1    
    96   49  115 1    
    97   50   51 1    
    98   50   52 1    
    99   50  116 1    
   100   51  117 1    
   101   51  118 1    
   102   51  119 1    
   103   52   53 2    
   104   52   54 am   BACKBONE|DICT|INTERRES
   105   54   55 1    
   106   54  120 1    
   107   55   56 1    
   108   55   57 1    
   109   55  121 1    
   110   56  122 1    
   111   56  123 1    
   112   56  124 1    
   113   57   58 2    
   114   57   59 am   BACKBONE|DICT|INTERRES
   115   59   60 1    
   116   59  125 1    
   117   60   61 1    
   118   60   62 1    
   119   60  126 1    
   120   61  127 1    
   121   61  128 1    
   122   61  129 1    
   123   62   63 2    
   124   62   64 am   BACKBONE|DICT|INTERRES
   125   64   65 1    
   126   64  130 1    
   127   65   66 1    
   128   65   69 1    
   129   65  131 1    
   130   66   67 am   BACKBONE|DICT|INTERRES
   131   66   68 2    
   132   67  132 1    
   133   67  133 1    
   134   69   70 1    
   135   69  134 1    
   136   69  135 1    
   137   70   71 1    
   138   71  136 1    
   139   71  137 1    
@<TRIPOS>SUBSTRUCTURE
     1 UNK         1 GROUP             0       ****    0 ROOT    
