@<TRIPOS>MOLECULE
3R137
137   139    1
SMALL
USER_CHARGES


@<TRIPOS>ATOM
      1 CA         29.6709    2.5698   -1.7521 C.3       0 UNK        -0.2020 
      2 C          29.1311    1.2300   -2.2280 C.2       0 UNK         0.4855 
      3 O          28.4366    1.1786   -3.2413 O.2       0 UNK        -0.5197 
      4 N          29.4589    0.1454   -1.5147 N.am      1 UNK        -0.4892 
      5 CA         28.9980   -1.2172   -1.8036 C.3       1 UNK         0.0835 
      6 C6         29.8084   -2.2751   -1.0173 C.3       12 UNK        -0.0855 
      7 S7         31.5896   -2.2460   -1.4312 S.3       12 UNK        -0.2931 
      8 C8         31.8964   -3.9606   -1.9704 C.3       12 UNK         0.0378 
      9 C9         31.8877   -4.1161   -3.4871 C.ar      12 UNK        -0.0802 
     10 C10        33.0396   -4.5560   -4.1442 C.ar      12 UNK        -0.0944 
     11 C11        33.0382   -4.7614   -5.5261 C.ar      12 UNK        -0.0787 
     12 C12        31.8724   -4.5096   -6.2543 C.ar      12 UNK        -0.0862 
     13 C13        30.7024   -4.0829   -5.6163 C.ar      12 UNK        -0.0733 
     14 C14        30.7229   -3.8871   -4.2270 C.ar      12 UNK        -0.0832 
     15 C15        29.4441   -3.9108   -6.4735 C.3       12 UNK         0.0240 
     16 S16        27.9327   -3.3812   -5.5940 S.3       12 UNK        -0.2522 
     17 C17        28.0562   -1.5668   -5.7176 C.3       12 UNK        -0.0967 
     18 CA         27.1149   -0.9672   -6.7899 C.3       5 UNK         0.0660 
     19 N          25.7304   -1.4284   -6.6697 N.am      5 UNK        -0.4015 
     20 C          24.8339   -1.4311   -7.6651 C.2       4 UNK         0.4946 
     21 O          25.0923   -1.0940   -8.8200 O.2       4 UNK        -0.5353 
     22 CA         23.4006   -1.8774   -7.3201 C.3       4 UNK         0.0277 
     23 CB         23.2281   -3.3796   -7.5970 C.3       4 UNK        -0.1981 
     24 N          23.0217   -1.5946   -5.9328 N.am      4 UNK        -0.4209 
     25 C          22.8280   -0.3648   -5.4348 C.2       3 UNK         0.4942 
     26 O          22.8865    0.6626   -6.1098 O.2       3 UNK        -0.5208 
     27 CA         22.5898   -0.2627   -3.9148 C.3       3 UNK         0.0250 
     28 CB         21.0964   -0.4264   -3.5908 C.3       3 UNK        -0.1990 
     29 N          23.3765   -1.2172   -3.1172 N.am      3 UNK        -0.4232 
     30 C          24.7132   -1.3134   -3.1532 C.2       2 UNK         0.4993 
     31 O          25.4146   -0.6171   -3.8885 O.2       2 UNK        -0.5286 
     32 CA         25.3669   -2.4070   -2.2900 C.3       2 UNK         0.0209 
     33 CB         25.0300   -3.8034   -2.8423 C.3       2 UNK        -0.1931 
     34 N          26.8249   -2.2539   -2.2776 N.am      2 UNK        -0.4546 
     35 C          27.4859   -1.3672   -1.5217 C.2       1 UNK         0.5154 
     36 O          26.9565   -0.7119   -0.6190 O.2       1 UNK        -0.5181 
     37 C          27.1537    0.5691   -6.7468 C.2       5 UNK         0.5014 
     38 O          27.8336    1.1788   -7.5663 O.2       5 UNK        -0.5248 
     39 N          26.3788    1.1787   -5.8383 N.am      6 UNK        -0.4434 
     40 CA         26.2132    2.6310   -5.7182 C.3       6 UNK         0.0363 
     41 CB         25.3361    2.9421   -4.4960 C.3       6 UNK        -0.1936 
     42 C          25.6349    3.2854   -6.9882 C.2       6 UNK         0.5081 
     43 O          25.9856    4.4233   -7.3000 O.2       6 UNK        -0.5248 
     44 N          24.7892    2.5424   -7.7140 N.am      7 UNK        -0.4718 
     45 CA         24.2358    2.9159   -9.0171 C.3       7 UNK         0.0273 
     46 CB         22.9514    2.1013   -9.2480 C.3       7 UNK        -0.1935 
     47 C          25.2125    2.7255  -10.1980 C.2       7 UNK         0.5018 
     48 O          24.8747    3.1386  -11.3089 O.2       7 UNK        -0.5186 
     49 N          26.3742    2.0988   -9.9696 N.am      8 UNK        -0.4240 
     50 CA         27.3799    1.7790  -10.9811 C.3       8 UNK         0.0235 
     51 CB         27.2673    0.2844  -11.3497 C.3       8 UNK        -0.2000 
     52 C          28.7566    2.1976  -10.4439 C.2       8 UNK         0.4941 
     53 O          29.0362    3.3968  -10.3914 O.2       8 UNK        -0.5273 
     54 N          29.5803    1.2237  -10.0416 N.am      9 UNK        -0.4262 
     55 CA         30.8327    1.4148   -9.3194 C.3       9 UNK         0.0264 
     56 CB         32.0108    1.4033  -10.3086 C.3       9 UNK        -0.1955 
     57 C          30.9657    0.2896   -8.2851 C.2       9 UNK         0.5031 
     58 O          30.4341   -0.8033   -8.5029 O.2       9 UNK        -0.5390 
     59 N          31.6933    0.5732   -7.2008 N.am      10 UNK        -0.4204 
     60 CA         32.0529   -0.3696   -6.1434 C.3       10 UNK         0.0237 
     61 CB         31.4205    0.0914   -4.8196 C.3       10 UNK        -0.1985 
     62 C          33.5793   -0.3839   -6.0157 C.2       10 UNK         0.4970 
     63 O          34.2217    0.6279   -6.3118 O.2       10 UNK        -0.4914 
     64 N          34.1307   -1.5130   -5.5609 N.am      11 UNK        -0.4285 
     65 CA         35.5820   -1.7054   -5.3970 C.3       11 UNK         0.1007 
     66 C          36.1799   -1.0465   -4.1199 C.2       11 UNK         0.5703 
     67 N          35.3757   -0.5682   -3.1773 N.am      11 UNK        -0.7361 
     68 O          37.3984   -0.9610   -3.9870 O.2       11 UNK        -0.4986 
     69 C69        35.9957   -3.1968   -5.4992 C.3       12 UNK        -0.0947 
     70 S70        35.3113   -4.0296   -6.9732 S.3       12 UNK        -0.2240 
     71 C71        34.2727   -5.3218   -6.2221 C.3       12 UNK         0.0194 
     72 H72        30.2749    2.4704   -0.8505 H         1 UNK         0.0906 
     73 H73        30.2898    3.0197   -2.5280 H         1 UNK         0.0906 
     74 H74        28.8468    3.2493   -1.5365 H         1 UNK         0.0906 
     75 H75        30.0299    0.2437   -0.6878 H         1 UNK         0.3140 
     76 H76        29.1606   -1.3893   -2.8683 H         1 UNK         0.1085 
     77 H77        29.7068   -2.1118    0.0576 H         1 UNK         0.0836 
     78 H78        29.4073   -3.2727   -1.2039 H         1 UNK         0.0836 
     79 H79        32.8650   -4.2615   -1.5681 H         1 UNK         0.0731 
     80 H80        31.1724   -4.6451   -1.5273 H         1 UNK         0.0731 
     81 H81        33.9314   -4.7716   -3.5721 H         1 UNK         0.1312 
     82 H82        31.8671   -4.6809   -7.3226 H         1 UNK         0.1406 
     83 H83        29.8320   -3.5811   -3.7024 H         1 UNK         0.1631 
     84 H84        29.2250   -4.8705   -6.9435 H         1 UNK         0.0717 
     85 H85        29.6502   -3.2158   -7.2891 H         1 UNK         0.0717 
     86 H86        27.8381   -1.1412   -4.7387 H         1 UNK         0.0934 
     87 H87        29.0884   -1.2971   -5.9415 H         1 UNK         0.0934 
     88 H88        27.4923   -1.2783   -7.7670 H         1 UNK         0.0739 
     89 H89        25.4256   -1.6467   -5.7308 H         1 UNK         0.3093 
     90 H90        22.7202   -1.3279   -7.9746 H         1 UNK         0.0818 
     91 H91        22.1986   -3.6986   -7.4334 H         1 UNK         0.0819 
     92 H92        23.4774   -3.6152   -8.6327 H         1 UNK         0.0819 
     93 H93        23.8747   -3.9858   -6.9611 H         1 UNK         0.0819 
     94 H94        22.9425   -2.3835   -5.3080 H         1 UNK         0.3041 
     95 H95        22.8947    0.7400   -3.6087 H         1 UNK         0.0784 
     96 H96        20.4944    0.2853   -4.1579 H         1 UNK         0.0793 
     97 H97        20.7354   -1.4262   -3.8354 H         1 UNK         0.0793 
     98 H98        20.8968   -0.2454   -2.5345 H         1 UNK         0.0793 
     99 H99        22.8580   -1.8263   -2.5001 H         1 UNK         0.3024 
    100 H100       24.9841   -2.3191   -1.2704 H         1 UNK         0.1171 
    101 H101       25.5122   -4.5864   -2.2566 H         1 UNK         0.0786 
    102 H102       25.3498   -3.9188   -3.8788 H         1 UNK         0.0786 
    103 H103       23.9572   -3.9969   -2.8086 H         1 UNK         0.0786 
    104 H104       27.3203   -2.7405   -3.0103 H         1 UNK         0.2977 
    105 H105       25.9078    0.6018   -5.1421 H         1 UNK         0.3127 
    106 H106       27.2040    3.0571   -5.5471 H         1 UNK         0.0770 
    107 H107       24.3286    2.5422   -4.6123 H         1 UNK         0.0814 
    108 H108       25.2461    4.0184   -4.3445 H         1 UNK         0.0814 
    109 H109       25.7630    2.5187   -3.5861 H         1 UNK         0.0814 
    110 H110       24.5040    1.6448   -7.3408 H         1 UNK         0.2983 
    111 H111       23.9686    3.9745   -8.9891 H         1 UNK         0.0947 
    112 H112       22.4700    2.3817  -10.1859 H         1 UNK         0.0806 
    113 H113       22.2266    2.2678   -8.4507 H         1 UNK         0.0806 
    114 H114       23.1582    1.0313   -9.2937 H         1 UNK         0.0806 
    115 H115       26.6221    1.8438   -9.0179 H         1 UNK         0.3000 
    116 H116       27.2122    2.3670  -11.8859 H         1 UNK         0.0850 
    117 H117       28.0374   -0.0077  -12.0649 H         1 UNK         0.0810 
    118 H118       26.3035    0.0719  -11.8127 H         1 UNK         0.0810 
    119 H119       27.3540   -0.3619  -10.4749 H         1 UNK         0.0810 
    120 H120       29.2501    0.2666  -10.0355 H         1 UNK         0.3040 
    121 H121       30.8079    2.3687   -8.7875 H         1 UNK         0.0766 
    122 H122       32.9604    1.5416   -9.7901 H         1 UNK         0.0812 
    123 H123       32.0690    0.4597  -10.8527 H         1 UNK         0.0812 
    124 H124       31.9205    2.2065  -11.0401 H         1 UNK         0.0812 
    125 H125       32.1687    1.4646   -7.1494 H         1 UNK         0.3205 
    126 H126       31.7028   -1.3750   -6.3868 H         1 UNK         0.0754 
    127 H127       31.5396   -0.6666   -4.0451 H         1 UNK         0.0769 
    128 H128       30.3541    0.2802   -4.9305 H         1 UNK         0.0769 
    129 H129       31.8737    1.0124   -4.4502 H         1 UNK         0.0769 
    130 H130       33.5478   -2.3067   -5.3341 H         1 UNK         0.2981 
    131 H131       36.0667   -1.1982   -6.2337 H         1 UNK         0.0541 
    132 H132       34.3760   -0.6393   -3.2725 H         1 UNK         0.3459 
    133 H133       35.7769   -0.1409   -2.3577 H         1 UNK         0.3459 
    134 H134       35.7091   -3.7381   -4.5981 H         1 UNK         0.0612 
    135 H135       37.0826   -3.2788   -5.5572 H         1 UNK         0.0612 
    136 H136       33.9635   -6.0151   -7.0056 H         1 UNK         0.0624 
    137 H137       34.8736   -5.9076   -5.5246 H         1 UNK         0.0624 
@<TRIPOS>BOND
     1    1    2 1    
     2    1   72 1    
     3    1   73 1    
     4    1   74 1    
     5    2    3 2    
     6    2    4 am   BACKBONE|DICT|INTERRES
     7    4    5 1    
     8    4   75 1    
     9    5    6 1    
    10    5   35 1    
    11    5   76 1    
    12    6    7 1    
    13    6   77 1    
    14    6   78 1    
    15    7    8 1    
    16    8    9 1    
    17    8   79 1    
    18    8   80 1    
    19    9   10 ar   
    20    9   14 ar   
    21   10   11 ar   
    22   10   81 1    
    23   11   12 ar   
    24   11   71 1    
    25   12   13 ar   
    26   12   82 1    
    27   13   14 ar   
    28   13   15 1    
    29   14   83 1    
    30   15   16 1    
    31   15   84 1    
    32   15   85 1    
    33   16   17 1    
    34   17   18 1    
    35   17   86 1    
    36   17   87 1    
    37   18   19 1    
    38   18   37 1    
    39   18   88 1    
    40   19   20 am   BACKBONE|DICT|INTERRES
    41   19   89 1    
    42   20   21 2    
    43   20   22 1    
    44   22   23 1    
    45   22   24 1    
    46   22   90 1    
    47   23   91 1    
    48   23   92 1    
    49   23   93 1    
    50   24   25 am   BACKBONE|DICT|INTERRES
    51   24   94 1    
    52   25   26 2    
    53   25   27 1    
    54   27   28 1    
    55   27   29 1    
    56   27   95 1    
    57   28   96 1    
    58   28   97 1    
    59   28   98 1    
    60   29   30 am   BACKBONE|DICT|INTERRES
    61   29   99 1    
    62   30   31 2    
    63   30   32 1    
    64   32   33 1    
    65   32   34 1    
    66   32  100 1    
    67   33  101 1    
    68   33  102 1    
    69   33  103 1    
    70   34   35 am   BACKBONE|DICT|INTERRES
    71   34  104 1    
    72   35   36 2    
    73   37   38 2    
    74   37   39 am   BACKBONE|DICT|INTERRES
    75   39   40 1    
    76   39  105 1    
    77   40   41 1    
    78   40   42 1    
    79   40  106 1    
    80   41  107 1    
    81   41  108 1    
    82   41  109 1    
    83   42   43 2    
    84   42   44 am   BACKBONE|DICT|INTERRES
    85   44   45 1    
    86   44  110 1    
    87   45   46 1    
    88   45   47 1    
    89   45  111 1    
    90   46  112 1    
    91   46  113 1    
    92   46  114 1    
    93   47   48 2    
    94   47   49 am   BACKBONE|DICT|INTERRES
    95   49   50 1    
    96   49  115 1    
    97   50   51 1    
    98   50   52 1    
    99   50  116 1    
   100   51  117 1    
   101   51  118 1    
   102   51  119 1    
   103   52   53 2    
   104   52   54 am   BACKBONE|DICT|INTERRES
   105   54   55 1    
   106   54  120 1    
   107   55   56 1    
   108   55   57 1    
   109   55  121 1    
   110   56  122 1    
   111   56  123 1    
   112   56  124 1    
   113   57   58 2    
   114   57   59 am   BACKBONE|DICT|INTERRES
   115   59   60 1    
   116   59  125 1    
   117   60   61 1    
   118   60   62 1    
   119   60  126 1    
   120   61  127 1    
   121   61  128 1    
   122   61  129 1    
   123   62   63 2    
   124   62   64 am   BACKBONE|DICT|INTERRES
   125   64   65 1    
   126   64  130 1    
   127   65   66 1    
   128   65   69 1    
   129   65  131 1    
   130   66   67 am   BACKBONE|DICT|INTERRES
   131   66   68 2    
   132   67  132 1    
   133   67  133 1    
   134   69   70 1    
   135   69  134 1    
   136   69  135 1    
   137   70   71 1    
   138   71  136 1    
   139   71  137 1    
@<TRIPOS>SUBSTRUCTURE
     1 UNK         1 GROUP             0       ****    0 ROOT    
