@<TRIPOS>MOLECULE
3R137
137   139    1
SMALL
USER_CHARGES


@<TRIPOS>ATOM
      1 CA         26.0237   -1.4294    1.8275 C.3       0 UNK        -0.2020 
      2 C          25.6537   -2.7896    1.2389 C.2       0 UNK         0.4855 
      3 O          24.9211   -3.5406    1.8803 O.2       0 UNK        -0.5197 
      4 N          26.1366   -3.1668    0.0463 N.am      1 UNK        -0.4892 
      5 CA         26.9584   -2.3794   -0.8832 C.3       1 UNK         0.0835 
      6 C6         27.5148   -3.2626   -2.0263 C.3       12 UNK        -0.0855 
      7 S7         28.6501   -4.5545   -1.4179 S.3       12 UNK        -0.2931 
      8 C8         30.2797   -3.8925   -1.9189 C.3       12 UNK         0.0378 
      9 C9         30.6198   -3.9949   -3.4093 C.ar      12 UNK        -0.0802 
     10 C10        31.6789   -3.2248   -3.9019 C.ar      12 UNK        -0.0944 
     11 C11        32.0568   -3.2941   -5.2463 C.ar      12 UNK        -0.0787 
     12 C12        31.3683   -4.1517   -6.1088 C.ar      12 UNK        -0.0862 
     13 C13        30.3211   -4.9454   -5.6321 C.ar      12 UNK        -0.0733 
     14 C14        29.9499   -4.8602   -4.2856 C.ar      12 UNK        -0.0832 
     15 C15        29.6282   -5.9372   -6.5590 C.3       12 UNK         0.0240 
     16 S16        28.5858   -5.1291   -7.8138 S.3       12 UNK        -0.2522 
     17 C17        27.2479   -4.4319   -6.7874 C.3       12 UNK        -0.0967 
     18 CA         26.6759   -3.1058   -7.3569 C.3       5 UNK         0.0660 
     19 N          25.3801   -2.7515   -6.7654 N.am      5 UNK        -0.4015 
     20 C          25.1312   -2.5056   -5.4742 C.2       4 UNK         0.4946 
     21 O          26.0028   -2.4569   -4.6069 O.2       4 UNK        -0.5353 
     22 CA         23.6674   -2.2984   -5.0710 C.3       4 UNK         0.0277 
     23 CB         23.2277   -3.3571   -4.0456 C.3       4 UNK        -0.1981 
     24 N          23.5368   -0.9719   -4.4808 N.am      4 UNK        -0.4209 
     25 C          23.2782    0.1370   -5.1866 C.2       3 UNK         0.4942 
     26 O          22.9874    0.1326   -6.3837 O.2       3 UNK        -0.5208 
     27 CA         23.3693    1.4852   -4.4483 C.3       3 UNK         0.0250 
     28 CB         21.9744    1.9462   -3.9957 C.3       3 UNK        -0.1990 
     29 N          24.2727    1.4784   -3.2942 N.am      3 UNK        -0.4232 
     30 C          25.5897    1.2344   -3.3462 C.2       2 UNK         0.4993 
     31 O          26.1942    0.9857   -4.3886 O.2       2 UNK        -0.5286 
     32 CA         26.3714    1.2722   -2.0191 C.3       2 UNK         0.0209 
     33 CB         25.5907    1.9052   -0.8430 C.3       2 UNK        -0.1931 
     34 N          26.8861   -0.0475   -1.6307 N.am      2 UNK        -0.4546 
     35 C          26.1738   -1.1687   -1.4390 C.2       1 UNK         0.5154 
     36 O          24.9583   -1.2584   -1.6391 O.2       1 UNK        -0.5181 
     37 C          27.7145   -1.9619   -7.3367 C.2       5 UNK         0.5014 
     38 O          28.1695   -1.5576   -8.4065 O.2       5 UNK        -0.5248 
     39 N          28.0868   -1.4697   -6.1480 N.am      6 UNK        -0.4434 
     40 CA         29.2079   -0.5488   -5.9351 C.3       6 UNK         0.0363 
     41 CB         29.4322   -0.3168   -4.4339 C.3       6 UNK        -0.1936 
     42 C          29.0777    0.7828   -6.6901 C.2       6 UNK         0.5081 
     43 O          30.0525    1.2369   -7.2895 O.2       6 UNK        -0.5248 
     44 N          27.8683    1.3570   -6.6959 N.am      7 UNK        -0.4718 
     45 CA         27.5201    2.5637   -7.4507 C.3       7 UNK         0.0273 
     46 CB         26.1222    3.0413   -7.0259 C.3       7 UNK        -0.1935 
     47 C          27.5819    2.3823   -8.9788 C.2       7 UNK         0.5018 
     48 O          27.8697    3.3512   -9.6819 O.2       7 UNK        -0.5186 
     49 N          27.3197    1.1608   -9.4661 N.am      8 UNK        -0.4240 
     50 CA         27.4170    0.8015  -10.8833 C.3       8 UNK         0.0235 
     51 CB         26.4968   -0.3927  -11.1870 C.3       8 UNK        -0.2000 
     52 C          28.8686    0.4983  -11.2856 C.2       8 UNK         0.4941 
     53 O          29.2970    0.9151  -12.3622 O.2       8 UNK        -0.5273 
     54 N          29.6034   -0.1976  -10.4055 N.am      9 UNK        -0.4262 
     55 CA         31.0339   -0.4861  -10.5386 C.3       9 UNK         0.0264 
     56 CB         31.4417   -1.5127   -9.4676 C.3       9 UNK        -0.1955 
     57 C          31.9182    0.7706  -10.4380 C.2       9 UNK         0.5031 
     58 O          32.9992    0.7903  -11.0280 O.2       9 UNK        -0.5390 
     59 N          31.4450    1.7781   -9.6884 N.am      10 UNK        -0.4204 
     60 CA         32.0998    3.0497   -9.3620 C.3       10 UNK         0.0237 
     61 CB         32.3502    3.8967  -10.6281 C.3       10 UNK        -0.1985 
     62 C          33.3583    2.8576   -8.4940 C.2       10 UNK         0.4970 
     63 O          34.3172    3.6216   -8.6197 O.2       10 UNK        -0.4914 
     64 N          33.3270    1.8390   -7.6260 N.am      11 UNK        -0.4285 
     65 CA         34.4098    1.4832   -6.6977 C.3       11 UNK         0.1007 
     66 C          34.4468    2.3265   -5.3893 C.2       11 UNK         0.5703 
     67 N          33.4582    3.1688   -5.1107 N.am      11 UNK        -0.7361 
     68 O          35.4020    2.2286   -4.6224 O.2       11 UNK        -0.4986 
     69 C69        34.4390   -0.0439   -6.4255 C.3       12 UNK        -0.0947 
     70 S70        32.8770   -0.6962   -5.7500 S.3       12 UNK        -0.2240 
     71 C71        33.2371   -2.4763   -5.7521 C.3       12 UNK         0.0194 
     72 H72        25.8130   -1.4112    2.8966 H         1 UNK         0.0906 
     73 H73        27.0822   -1.2056    1.7039 H         1 UNK         0.0906 
     74 H74        25.4373   -0.6377    1.3620 H         1 UNK         0.0906 
     75 H75        25.8718   -4.0760   -0.3033 H         1 UNK         0.3140 
     76 H76        27.8133   -1.9956   -0.3235 H         1 UNK         0.1085 
     77 H77        26.6966   -3.7621   -2.5474 H         1 UNK         0.0836 
     78 H78        28.0282   -2.6601   -2.7775 H         1 UNK         0.0836 
     79 H79        31.0467   -4.4325   -1.3623 H         1 UNK         0.0731 
     80 H80        30.3445   -2.8518   -1.5970 H         1 UNK         0.0731 
     81 H81        32.2196   -2.5666   -3.2351 H         1 UNK         0.1312 
     82 H82        31.6589   -4.2210   -7.1483 H         1 UNK         0.1406 
     83 H83        29.1485   -5.4877   -3.9226 H         1 UNK         0.1631 
     84 H84        29.0195   -6.6429   -5.9913 H         1 UNK         0.0717 
     85 H85        30.3861   -6.5341   -7.0684 H         1 UNK         0.0717 
     86 H86        26.4585   -5.1830   -6.7324 H         1 UNK         0.0934 
     87 H87        27.5938   -4.2917   -5.7626 H         1 UNK         0.0934 
     88 H88        26.4490   -3.2844   -8.4096 H         1 UNK         0.0739 
     89 H89        24.6057   -2.7250   -7.4140 H         1 UNK         0.3093 
     90 H90        23.0240   -2.3869   -5.9492 H         1 UNK         0.0818 
     91 H91        22.1873   -3.2163   -3.7526 H         1 UNK         0.0819 
     92 H92        23.3164   -4.3619   -4.4604 H         1 UNK         0.0819 
     93 H93        23.8366   -3.3234   -3.1408 H         1 UNK         0.0819 
     94 H94        23.8596   -0.8793   -3.5236 H         1 UNK         0.3041 
     95 H95        23.7557    2.2166   -5.1609 H         1 UNK         0.0784 
     96 H96        21.2845    1.9887   -4.8398 H         1 UNK         0.0793 
     97 H97        21.5449    1.2674   -3.2577 H         1 UNK         0.0793 
     98 H98        22.0077    2.9439   -3.5574 H         1 UNK         0.0793 
     99 H99        23.8566    1.6504   -2.3906 H         1 UNK         0.3024 
    100 H100       27.2413    1.9030   -2.2108 H         1 UNK         0.1171 
    101 H101       25.2428    2.9087   -1.0927 H         1 UNK         0.0786 
    102 H102       24.7230    1.3122   -0.5516 H         1 UNK         0.0786 
    103 H103       26.2270    2.0028    0.0367 H         1 UNK         0.0786 
    104 H104       27.8836   -0.0840   -1.4747 H         1 UNK         0.2977 
    105 H105       27.5718   -1.7930   -5.3312 H         1 UNK         0.3127 
    106 H106       30.0899   -1.0540   -6.3292 H         1 UNK         0.0770 
    107 H107       28.5696    0.1474   -3.9613 H         1 UNK         0.0814 
    108 H108       30.2882    0.3380   -4.2659 H         1 UNK         0.0814 
    109 H109       29.6362   -1.2523   -3.9166 H         1 UNK         0.0814 
    110 H110       27.1527    0.9733   -6.0825 H         1 UNK         0.2983 
    111 H111       28.2424    3.3395   -7.1876 H         1 UNK         0.0947 
    112 H112       25.8292    3.9373   -7.5750 H         1 UNK         0.0806 
    113 H113       26.0953    3.2906   -5.9651 H         1 UNK         0.0806 
    114 H114       25.3634    2.2798   -7.2108 H         1 UNK         0.0806 
    115 H115       27.1617    0.4048   -8.8127 H         1 UNK         0.3000 
    116 H116       27.0744    1.6468  -11.4847 H         1 UNK         0.0850 
    117 H117       26.5239   -0.6413  -12.2487 H         1 UNK         0.0810 
    118 H118       25.4606   -0.1685  -10.9337 H         1 UNK         0.0810 
    119 H119       26.7900   -1.2877  -10.6382 H         1 UNK         0.0810 
    120 H120       29.1369   -0.5756   -9.5815 H         1 UNK         0.3040 
    121 H121       31.1973   -0.9293  -11.5230 H         1 UNK         0.0766 
    122 H122       31.2868   -1.1260   -8.4601 H         1 UNK         0.0812 
    123 H123       32.4968   -1.7750   -9.5567 H         1 UNK         0.0812 
    124 H124       30.8673   -2.4347   -9.5605 H         1 UNK         0.0812 
    125 H125       30.6010    1.5912   -9.1541 H         1 UNK         0.3205 
    126 H126       31.3893    3.5960   -8.7398 H         1 UNK         0.0754 
    127 H127       32.6920    4.8988  -10.3664 H         1 UNK         0.0769 
    128 H128       31.4382    4.0090  -11.2147 H         1 UNK         0.0769 
    129 H129       33.1107    3.4527  -11.2710 H         1 UNK         0.0769 
    130 H130       32.4820    1.2885   -7.5485 H         1 UNK         0.2981 
    131 H131       35.3510    1.7151   -7.1999 H         1 UNK         0.0541 
    132 H132       32.6683    3.2501   -5.7297 H         1 UNK         0.3459 
    133 H133       33.4983    3.7146   -4.2648 H         1 UNK         0.3459 
    134 H134       35.2541   -0.3037   -5.7477 H         1 UNK         0.0612 
    135 H135       34.6482   -0.5699   -7.3584 H         1 UNK         0.0612 
    136 H136       34.1060   -2.6683   -5.1211 H         1 UNK         0.0624 
    137 H137       33.5117   -2.7816   -6.7631 H         1 UNK         0.0624 
@<TRIPOS>BOND
     1    1    2 1    
     2    1   72 1    
     3    1   73 1    
     4    1   74 1    
     5    2    3 2    
     6    2    4 am   BACKBONE|DICT|INTERRES
     7    4    5 1    
     8    4   75 1    
     9    5    6 1    
    10    5   35 1    
    11    5   76 1    
    12    6    7 1    
    13    6   77 1    
    14    6   78 1    
    15    7    8 1    
    16    8    9 1    
    17    8   79 1    
    18    8   80 1    
    19    9   10 ar   
    20    9   14 ar   
    21   10   11 ar   
    22   10   81 1    
    23   11   12 ar   
    24   11   71 1    
    25   12   13 ar   
    26   12   82 1    
    27   13   14 ar   
    28   13   15 1    
    29   14   83 1    
    30   15   16 1    
    31   15   84 1    
    32   15   85 1    
    33   16   17 1    
    34   17   18 1    
    35   17   86 1    
    36   17   87 1    
    37   18   19 1    
    38   18   37 1    
    39   18   88 1    
    40   19   20 am   BACKBONE|DICT|INTERRES
    41   19   89 1    
    42   20   21 2    
    43   20   22 1    
    44   22   23 1    
    45   22   24 1    
    46   22   90 1    
    47   23   91 1    
    48   23   92 1    
    49   23   93 1    
    50   24   25 am   BACKBONE|DICT|INTERRES
    51   24   94 1    
    52   25   26 2    
    53   25   27 1    
    54   27   28 1    
    55   27   29 1    
    56   27   95 1    
    57   28   96 1    
    58   28   97 1    
    59   28   98 1    
    60   29   30 am   BACKBONE|DICT|INTERRES
    61   29   99 1    
    62   30   31 2    
    63   30   32 1    
    64   32   33 1    
    65   32   34 1    
    66   32  100 1    
    67   33  101 1    
    68   33  102 1    
    69   33  103 1    
    70   34   35 am   BACKBONE|DICT|INTERRES
    71   34  104 1    
    72   35   36 2    
    73   37   38 2    
    74   37   39 am   BACKBONE|DICT|INTERRES
    75   39   40 1    
    76   39  105 1    
    77   40   41 1    
    78   40   42 1    
    79   40  106 1    
    80   41  107 1    
    81   41  108 1    
    82   41  109 1    
    83   42   43 2    
    84   42   44 am   BACKBONE|DICT|INTERRES
    85   44   45 1    
    86   44  110 1    
    87   45   46 1    
    88   45   47 1    
    89   45  111 1    
    90   46  112 1    
    91   46  113 1    
    92   46  114 1    
    93   47   48 2    
    94   47   49 am   BACKBONE|DICT|INTERRES
    95   49   50 1    
    96   49  115 1    
    97   50   51 1    
    98   50   52 1    
    99   50  116 1    
   100   51  117 1    
   101   51  118 1    
   102   51  119 1    
   103   52   53 2    
   104   52   54 am   BACKBONE|DICT|INTERRES
   105   54   55 1    
   106   54  120 1    
   107   55   56 1    
   108   55   57 1    
   109   55  121 1    
   110   56  122 1    
   111   56  123 1    
   112   56  124 1    
   113   57   58 2    
   114   57   59 am   BACKBONE|DICT|INTERRES
   115   59   60 1    
   116   59  125 1    
   117   60   61 1    
   118   60   62 1    
   119   60  126 1    
   120   61  127 1    
   121   61  128 1    
   122   61  129 1    
   123   62   63 2    
   124   62   64 am   BACKBONE|DICT|INTERRES
   125   64   65 1    
   126   64  130 1    
   127   65   66 1    
   128   65   69 1    
   129   65  131 1    
   130   66   67 am   BACKBONE|DICT|INTERRES
   131   66   68 2    
   132   67  132 1    
   133   67  133 1    
   134   69   70 1    
   135   69  134 1    
   136   69  135 1    
   137   70   71 1    
   138   71  136 1    
   139   71  137 1    
@<TRIPOS>SUBSTRUCTURE
     1 UNK         1 GROUP             0       ****    0 ROOT    
