@<TRIPOS>MOLECULE
3R137
137   139    1
SMALL
USER_CHARGES


@<TRIPOS>ATOM
      1 CA         24.2205   -4.6731   -2.2262 C.3       0 UNK        -0.2020 
      2 C          25.1738   -3.8826   -1.3455 C.2       0 UNK         0.4855 
      3 O          24.9804   -3.8226   -0.1310 O.2       0 UNK        -0.5197 
      4 N          26.1978   -3.2627   -1.9417 N.am      1 UNK        -0.4892 
      5 CA         27.2747   -2.5525   -1.2397 C.3       1 UNK         0.0835 
      6 C6         28.6295   -2.7263   -1.9708 C.3       12 UNK        -0.0855 
      7 S7         29.2827   -4.4114   -1.7570 S.3       12 UNK        -0.2931 
      8 C8         30.9821   -4.2021   -2.3845 C.3       12 UNK         0.0378 
      9 C9         31.0433   -4.0581   -3.9013 C.ar      12 UNK        -0.0802 
     10 C10        31.7941   -3.0319   -4.4865 C.ar      12 UNK        -0.0944 
     11 C11        31.9113   -2.9338   -5.8814 C.ar      12 UNK        -0.0787 
     12 C12        31.2464   -3.8715   -6.6792 C.ar      12 UNK        -0.0862 
     13 C13        30.4749   -4.8869   -6.1102 C.ar      12 UNK        -0.0733 
     14 C14        30.3884   -4.9816   -4.7209 C.ar      12 UNK        -0.0832 
     15 C15        29.7507   -5.8974   -6.9903 C.3       12 UNK         0.0240 
     16 S16        28.5604   -5.1221   -8.1319 S.3       12 UNK        -0.2522 
     17 C17        27.3906   -4.3038   -6.9928 C.3       12 UNK        -0.0967 
     18 CA         26.9073   -2.9408   -7.5548 C.3       5 UNK         0.0660 
     19 N          25.5780   -2.5417   -7.0831 N.am      5 UNK        -0.4015 
     20 C          25.1757   -2.3543   -5.8208 C.2       4 UNK         0.4946 
     21 O          25.8643   -2.5923   -4.8225 O.2       4 UNK        -0.5353 
     22 CA         23.7750   -1.7409   -5.6586 C.3       4 UNK         0.0277 
     23 CB         22.7445   -2.8019   -5.2462 C.3       4 UNK        -0.1981 
     24 N          23.7658   -0.6412   -4.6919 N.am      4 UNK        -0.4209 
     25 C          24.5000    0.4770   -4.8023 C.2       3 UNK         0.4942 
     26 O          25.2607    0.7125   -5.7409 O.2       3 UNK        -0.5208 
     27 CA         24.3830    1.4841   -3.6577 C.3       3 UNK         0.0250 
     28 CB         23.0216    2.2068   -3.6880 C.3       3 UNK        -0.1990 
     29 N          24.6025    0.7978   -2.3864 N.am      3 UNK        -0.4232 
     30 C          24.8816    1.3872   -1.2186 C.2       2 UNK         0.4993 
     31 O          24.9170    2.6071   -1.0523 O.2       2 UNK        -0.5286 
     32 CA         25.1795    0.4579   -0.0277 C.3       2 UNK         0.0209 
     33 CB         23.9176    0.2638    0.8290 C.3       2 UNK        -0.1931 
     34 N          25.7083   -0.8588   -0.4062 N.am      2 UNK        -0.4546 
     35 C          26.8938   -1.0774   -0.9934 C.2       1 UNK         0.5154 
     36 O          27.6585   -0.1708   -1.3246 O.2       1 UNK        -0.5181 
     37 C          27.9530   -1.8147   -7.3979 C.2       5 UNK         0.5014 
     38 O          28.6231   -1.4824   -8.3772 O.2       5 UNK        -0.5248 
     39 N          28.0434   -1.2101   -6.2046 N.am      6 UNK        -0.4434 
     40 CA         28.9840   -0.1372   -5.8706 C.3       6 UNK         0.0363 
     41 CB         28.8536    0.2526   -4.3918 C.3       6 UNK        -0.1936 
     42 C          28.8709    1.1107   -6.7567 C.2       6 UNK         0.5081 
     43 O          29.9022    1.6525   -7.1526 O.2       6 UNK        -0.5248 
     44 N          27.6428    1.5437   -7.0662 N.am      7 UNK        -0.4718 
     45 CA         27.3858    2.6898   -7.9431 C.3       7 UNK         0.0273 
     46 CB         25.9307    3.1521   -7.7667 C.3       7 UNK        -0.1935 
     47 C          27.6803    2.3959   -9.4244 C.2       7 UNK         0.5018 
     48 O          28.0164    3.3210  -10.1640 O.2       7 UNK        -0.5186 
     49 N          27.5473    1.1261   -9.8313 N.am      8 UNK        -0.4240 
     50 CA         27.7895    0.6649  -11.1986 C.3       8 UNK         0.0235 
     51 CB         26.9980   -0.6287  -11.4568 C.3       8 UNK        -0.2000 
     52 C          29.2858    0.4562  -11.4711 C.2       8 UNK         0.4941 
     53 O          29.7892    0.9297  -12.4901 O.2       8 UNK        -0.5273 
     54 N          29.9677   -0.2417  -10.5537 N.am      9 UNK        -0.4262 
     55 CA         31.3903   -0.5821  -10.6484 C.3       9 UNK         0.0264 
     56 CB         31.6054   -1.9491   -9.9845 C.3       9 UNK        -0.1955 
     57 C          32.3294    0.4943  -10.0667 C.2       9 UNK         0.5031 
     58 O          33.5465    0.3141  -10.1251 O.2       9 UNK        -0.5390 
     59 N          31.7615    1.5907   -9.5448 N.am      10 UNK        -0.4204 
     60 CA         32.4297    2.7897   -9.0255 C.3       10 UNK         0.0237 
     61 CB         33.2334    3.5055  -10.1337 C.3       10 UNK        -0.1985 
     62 C          33.2449    2.5468   -7.7396 C.2       10 UNK         0.4970 
     63 O          34.3339    3.1047   -7.5882 O.2       10 UNK        -0.4914 
     64 N          32.6745    1.7654   -6.8151 N.am      11 UNK        -0.4285 
     65 CA         33.1017    1.7103   -5.4061 C.3       11 UNK         0.1007 
     66 C          32.4024    2.7947   -4.5370 C.2       11 UNK         0.5703 
     67 N          31.2901    3.3798   -4.9705 N.am      11 UNK        -0.7361 
     68 O          32.8865    3.1192   -3.4556 O.2       11 UNK        -0.4986 
     69 C69        32.9104    0.3065   -4.7752 C.3       12 UNK        -0.0947 
     70 S70        33.9548   -0.9648   -5.5585 S.3       12 UNK        -0.2240 
     71 C71        32.7337   -1.8480   -6.5839 C.3       12 UNK         0.0194 
     72 H72        23.2113   -4.2712   -2.1443 H         1 UNK         0.0906 
     73 H73        24.5231   -4.6497   -3.2730 H         1 UNK         0.0906 
     74 H74        24.1970   -5.7147   -1.9073 H         1 UNK         0.0906 
     75 H75        26.2523   -3.2502   -2.9574 H         1 UNK         0.3140 
     76 H76        27.3935   -2.9815   -0.2416 H         1 UNK         0.1085 
     77 H77        28.5216   -2.5263   -3.0376 H         1 UNK         0.0836 
     78 H78        29.3805   -2.0318   -1.5891 H         1 UNK         0.0836 
     79 H79        31.4461   -3.3478   -1.8891 H         1 UNK         0.0731 
     80 H80        31.5680   -5.0765   -2.0984 H         1 UNK         0.0731 
     81 H81        32.3002   -2.3255   -3.8452 H         1 UNK         0.1312 
     82 H82        31.3241   -3.8197   -7.7554 H         1 UNK         0.1406 
     83 H83        29.8114   -5.7783   -4.2711 H         1 UNK         0.1631 
     84 H84        29.2230   -6.6364   -6.3853 H         1 UNK         0.0717 
     85 H85        30.4885   -6.4492   -7.5741 H         1 UNK         0.0717 
     86 H86        26.5430   -4.9794   -6.8687 H         1 UNK         0.0934 
     87 H87        27.8236   -4.1880   -5.9978 H         1 UNK         0.0934 
     88 H88        26.7663   -3.0656   -8.6301 H         1 UNK         0.0739 
     89 H89        24.9308   -2.2970   -7.8194 H         1 UNK         0.3093 
     90 H90        23.4643   -1.3247   -6.6195 H         1 UNK         0.0818 
     91 H91        21.7308   -2.4026   -5.2834 H         1 UNK         0.0819 
     92 H92        22.7756   -3.6643   -5.9136 H         1 UNK         0.0819 
     93 H93        22.9208   -3.1628   -4.2352 H         1 UNK         0.0819 
     94 H94        23.1447   -0.7410   -3.9031 H         1 UNK         0.3041 
     95 H95        25.1760    2.2236   -3.7903 H         1 UNK         0.0784 
     96 H96        22.8412    2.6564   -4.6655 H         1 UNK         0.0793 
     97 H97        22.1944    1.5269   -3.4817 H         1 UNK         0.0793 
     98 H98        22.9805    3.0118   -2.9544 H         1 UNK         0.0793 
     99 H99        24.6642   -0.2098   -2.4278 H         1 UNK         0.3024 
    100 H100       25.9367    0.9561    0.5821 H         1 UNK         0.1171 
    101 H101       23.5115    1.2242    1.1501 H         1 UNK         0.0786 
    102 H102       24.1335   -0.3113    1.7297 H         1 UNK         0.0786 
    103 H103       23.1317   -0.2552    0.2788 H         1 UNK         0.0786 
    104 H104       25.1564   -1.6721   -0.1567 H         1 UNK         0.2977 
    105 H105       27.4175   -1.5305   -5.4720 H         1 UNK         0.3127 
    106 H106       29.9833   -0.5426   -6.0268 H         1 UNK         0.0770 
    107 H107       29.2381   -0.5313   -3.7438 H         1 UNK         0.0814 
    108 H108       27.8182    0.4522   -4.1125 H         1 UNK         0.0814 
    109 H109       29.4300    1.1505   -4.1642 H         1 UNK         0.0814 
    110 H110       26.8312    1.0874   -6.6515 H         1 UNK         0.2983 
    111 H111       28.0411    3.5085   -7.6367 H         1 UNK         0.0947 
    112 H112       25.7191    4.0255   -8.3852 H         1 UNK         0.0806 
    113 H113       25.7263    3.4298   -6.7324 H         1 UNK         0.0806 
    114 H114       25.2228    2.3716   -8.0484 H         1 UNK         0.0806 
    115 H115       27.3234    0.4248   -9.1396 H         1 UNK         0.3000 
    116 H116       27.4255    1.4243  -11.8947 H         1 UNK         0.0850 
    117 H117       27.1472   -0.9772  -12.4797 H         1 UNK         0.0810 
    118 H118       25.9277   -0.4711  -11.3228 H         1 UNK         0.0810 
    119 H119       27.3038   -1.4366  -10.7913 H         1 UNK         0.0810 
    120 H120       29.4655   -0.6217   -9.7510 H         1 UNK         0.3040 
    121 H121       31.6621   -0.6851  -11.7012 H         1 UNK         0.0766 
    122 H122       32.6616   -2.2184   -9.9418 H         1 UNK         0.0812 
    123 H123       31.0910   -2.7378  -10.5338 H         1 UNK         0.0812 
    124 H124       31.2144   -1.9497   -8.9705 H         1 UNK         0.0812 
    125 H125       30.7521    1.6016   -9.4877 H         1 UNK         0.3205 
    126 H126       31.6242    3.4649   -8.7324 H         1 UNK         0.0754 
    127 H127       33.5993    4.4732   -9.7885 H         1 UNK         0.0769 
    128 H128       32.6174    3.6895  -11.0140 H         1 UNK         0.0769 
    129 H129       34.1013    2.9242  -10.4465 H         1 UNK         0.0769 
    130 H130       31.7349    1.4303   -7.0078 H         1 UNK         0.2981 
    131 H131       34.1687    1.9358   -5.3559 H         1 UNK         0.0541 
    132 H132       30.8610    3.0904   -5.8383 H         1 UNK         0.3459 
    133 H133       30.8546    4.0886   -4.4023 H         1 UNK         0.3459 
    134 H134       31.8638    0.0055   -4.8075 H         1 UNK         0.0612 
    135 H135       33.1827    0.3248   -3.7182 H         1 UNK         0.0612 
    136 H136       32.0602   -1.1166   -7.0297 H         1 UNK         0.0624 
    137 H137       33.2827   -2.3036   -7.4091 H         1 UNK         0.0624 
@<TRIPOS>BOND
     1    1    2 1    
     2    1   72 1    
     3    1   73 1    
     4    1   74 1    
     5    2    3 2    
     6    2    4 am   BACKBONE|DICT|INTERRES
     7    4    5 1    
     8    4   75 1    
     9    5    6 1    
    10    5   35 1    
    11    5   76 1    
    12    6    7 1    
    13    6   77 1    
    14    6   78 1    
    15    7    8 1    
    16    8    9 1    
    17    8   79 1    
    18    8   80 1    
    19    9   10 ar   
    20    9   14 ar   
    21   10   11 ar   
    22   10   81 1    
    23   11   12 ar   
    24   11   71 1    
    25   12   13 ar   
    26   12   82 1    
    27   13   14 ar   
    28   13   15 1    
    29   14   83 1    
    30   15   16 1    
    31   15   84 1    
    32   15   85 1    
    33   16   17 1    
    34   17   18 1    
    35   17   86 1    
    36   17   87 1    
    37   18   19 1    
    38   18   37 1    
    39   18   88 1    
    40   19   20 am   BACKBONE|DICT|INTERRES
    41   19   89 1    
    42   20   21 2    
    43   20   22 1    
    44   22   23 1    
    45   22   24 1    
    46   22   90 1    
    47   23   91 1    
    48   23   92 1    
    49   23   93 1    
    50   24   25 am   BACKBONE|DICT|INTERRES
    51   24   94 1    
    52   25   26 2    
    53   25   27 1    
    54   27   28 1    
    55   27   29 1    
    56   27   95 1    
    57   28   96 1    
    58   28   97 1    
    59   28   98 1    
    60   29   30 am   BACKBONE|DICT|INTERRES
    61   29   99 1    
    62   30   31 2    
    63   30   32 1    
    64   32   33 1    
    65   32   34 1    
    66   32  100 1    
    67   33  101 1    
    68   33  102 1    
    69   33  103 1    
    70   34   35 am   BACKBONE|DICT|INTERRES
    71   34  104 1    
    72   35   36 2    
    73   37   38 2    
    74   37   39 am   BACKBONE|DICT|INTERRES
    75   39   40 1    
    76   39  105 1    
    77   40   41 1    
    78   40   42 1    
    79   40  106 1    
    80   41  107 1    
    81   41  108 1    
    82   41  109 1    
    83   42   43 2    
    84   42   44 am   BACKBONE|DICT|INTERRES
    85   44   45 1    
    86   44  110 1    
    87   45   46 1    
    88   45   47 1    
    89   45  111 1    
    90   46  112 1    
    91   46  113 1    
    92   46  114 1    
    93   47   48 2    
    94   47   49 am   BACKBONE|DICT|INTERRES
    95   49   50 1    
    96   49  115 1    
    97   50   51 1    
    98   50   52 1    
    99   50  116 1    
   100   51  117 1    
   101   51  118 1    
   102   51  119 1    
   103   52   53 2    
   104   52   54 am   BACKBONE|DICT|INTERRES
   105   54   55 1    
   106   54  120 1    
   107   55   56 1    
   108   55   57 1    
   109   55  121 1    
   110   56  122 1    
   111   56  123 1    
   112   56  124 1    
   113   57   58 2    
   114   57   59 am   BACKBONE|DICT|INTERRES
   115   59   60 1    
   116   59  125 1    
   117   60   61 1    
   118   60   62 1    
   119   60  126 1    
   120   61  127 1    
   121   61  128 1    
   122   61  129 1    
   123   62   63 2    
   124   62   64 am   BACKBONE|DICT|INTERRES
   125   64   65 1    
   126   64  130 1    
   127   65   66 1    
   128   65   69 1    
   129   65  131 1    
   130   66   67 am   BACKBONE|DICT|INTERRES
   131   66   68 2    
   132   67  132 1    
   133   67  133 1    
   134   69   70 1    
   135   69  134 1    
   136   69  135 1    
   137   70   71 1    
   138   71  136 1    
   139   71  137 1    
@<TRIPOS>SUBSTRUCTURE
     1 UNK         1 GROUP             0       ****    0 ROOT    
