@<TRIPOS>MOLECULE
3R137
137   139    1
SMALL
USER_CHARGES


@<TRIPOS>ATOM
      1 CA         29.4028   -4.6102   -2.9279 C.3       0 UNK        -0.2020 
      2 C          29.1523   -3.6324   -1.7920 C.2       0 UNK         0.4855 
      3 O          28.9260   -4.0596   -0.6597 O.2       0 UNK        -0.5197 
      4 N          29.1842   -2.3241   -2.0819 N.am      1 UNK        -0.4892 
      5 CA         28.9090   -1.2535   -1.1139 C.3       1 UNK         0.0835 
      6 C6         29.4517    0.1211   -1.5844 C.3       12 UNK        -0.0855 
      7 S7         28.7949    0.7007   -3.1912 S.3       12 UNK        -0.2931 
      8 C8         30.2922    0.7501   -4.2298 C.3       12 UNK         0.0378 
      9 C9         30.6868   -0.6434   -4.6894 C.ar      12 UNK        -0.0802 
     10 C10        31.6956   -1.3544   -4.0339 C.ar      12 UNK        -0.0944 
     11 C11        32.0336   -2.6481   -4.4447 C.ar      12 UNK        -0.0787 
     12 C12        31.3383   -3.2367   -5.5055 C.ar      12 UNK        -0.0862 
     13 C13        30.3305   -2.5320   -6.1693 C.ar      12 UNK        -0.0733 
     14 C14        30.0263   -1.2274   -5.7717 C.ar      12 UNK        -0.0832 
     15 C15        29.5706   -3.1802   -7.3158 C.3       12 UNK         0.0240 
     16 S16        28.2581   -4.3059   -6.7376 S.3       12 UNK        -0.2522 
     17 C17        27.1221   -3.2127   -5.8129 C.3       12 UNK        -0.0967 
     18 CA         26.0815   -2.5014   -6.7237 C.3       5 UNK         0.0660 
     19 N          24.7288   -2.5855   -6.1660 N.am      5 UNK        -0.4015 
     20 C          23.6167   -2.8315   -6.8720 C.2       4 UNK         0.4946 
     21 O          23.6058   -3.0387   -8.0863 O.2       4 UNK        -0.5353 
     22 CA         22.2827   -2.8669   -6.1010 C.3       4 UNK         0.0277 
     23 CB         21.9277   -4.3121   -5.7141 C.3       4 UNK        -0.1981 
     24 N          22.2765   -2.0317   -4.8969 N.am      4 UNK        -0.4209 
     25 C          22.2756   -0.6915   -4.9028 C.2       3 UNK         0.4942 
     26 O          22.2239   -0.0114   -5.9276 O.2       3 UNK        -0.5208 
     27 CA         22.3737    0.0158   -3.5375 C.3       3 UNK         0.0250 
     28 CB         20.9669    0.3037   -2.9882 C.3       3 UNK        -0.1990 
     29 N          23.1617   -0.6783   -2.5075 N.am      3 UNK        -0.4232 
     30 C          24.4114   -1.1446   -2.6411 C.2       2 UNK         0.4993 
     31 O          25.0233   -1.1880   -3.7122 O.2       2 UNK        -0.5286 
     32 CA         25.0754   -1.6946   -1.3761 C.3       2 UNK         0.0209 
     33 CB         24.6341   -3.1461   -1.1228 C.3       2 UNK        -0.1931 
     34 N          26.5234   -1.6658   -1.5618 N.am      2 UNK        -0.4546 
     35 C          27.4220   -1.1848   -0.6943 C.2       1 UNK         0.5154 
     36 O          27.1258   -0.7195    0.4082 O.2       1 UNK        -0.5181 
     37 C          26.4737   -1.0329   -6.9812 C.2       5 UNK         0.5014 
     38 O          27.2019   -0.7672   -7.9365 O.2       5 UNK        -0.5248 
     39 N          25.9790   -0.1055   -6.1451 N.am      6 UNK        -0.4434 
     40 CA         26.2922    1.3320   -6.1008 C.3       6 UNK         0.0363 
     41 CB         25.5534    1.9605   -4.9076 C.3       6 UNK        -0.1936 
     42 C          26.0370    2.1534   -7.3834 C.2       6 UNK         0.5081 
     43 O          26.3192    3.3527   -7.3903 O.2       6 UNK        -0.5248 
     44 N          25.5406    1.5190   -8.4537 N.am      7 UNK        -0.4718 
     45 CA         25.5966    2.0390   -9.8217 C.3       7 UNK         0.0273 
     46 CB         24.7683    1.1308  -10.7440 C.3       7 UNK        -0.1935 
     47 C          27.0467    2.1621  -10.3351 C.2       7 UNK         0.5018 
     48 O          27.3288    3.0642  -11.1251 O.2       7 UNK        -0.5186 
     49 N          27.9399    1.2831   -9.8557 N.am      8 UNK        -0.4240 
     50 CA         29.3879    1.4154   -9.9933 C.3       8 UNK         0.0235 
     51 CB         30.0281    0.0180  -10.0075 C.3       8 UNK        -0.2000 
     52 C          29.9198    2.2354   -8.8086 C.2       8 UNK         0.4941 
     53 O          29.5057    2.0007   -7.6711 O.2       8 UNK        -0.5273 
     54 N          30.8387    3.1682   -9.0884 N.am      9 UNK        -0.4262 
     55 CA         31.4150    4.0818   -8.0941 C.3       9 UNK         0.0264 
     56 CB         32.0917    5.2546   -8.8256 C.3       9 UNK        -0.1955 
     57 C          32.4062    3.4152   -7.1205 C.2       9 UNK         0.5031 
     58 O          32.6609    3.9722   -6.0511 O.2       9 UNK        -0.5390 
     59 N          32.9587    2.2600   -7.5037 N.am      10 UNK        -0.4204 
     60 CA         33.9223    1.4714   -6.7434 C.3       10 UNK         0.0237 
     61 CB         35.3357    2.0683   -6.9063 C.3       10 UNK        -0.1985 
     62 C          33.8636    0.0219   -7.2397 C.2       10 UNK         0.4970 
     63 O          33.2304   -0.2483   -8.2653 O.2       10 UNK        -0.4914 
     64 N          34.5261   -0.8737   -6.5004 N.am      11 UNK        -0.4285 
     65 CA         34.5883   -2.3160   -6.7735 C.3       11 UNK         0.1007 
     66 C          35.2661   -2.6591   -8.1295 C.2       11 UNK         0.5703 
     67 N          34.8037   -3.6998   -8.8113 N.am      11 UNK        -0.7361 
     68 O          36.2340   -2.0211   -8.5431 O.2       11 UNK        -0.4986 
     69 C69        35.2591   -3.1067   -5.6143 C.3       12 UNK        -0.0947 
     70 S70        34.7591   -2.6048   -3.9285 S.3       12 UNK        -0.2240 
     71 C71        33.1384   -3.4117   -3.7289 C.3       12 UNK         0.0194 
     72 H72        28.7189   -5.4559   -2.8589 H         1 UNK         0.0906 
     73 H73        29.2523   -4.1406   -3.8974 H         1 UNK         0.0906 
     74 H74        30.4233   -4.9896   -2.8822 H         1 UNK         0.0906 
     75 H75        29.4111   -2.0140   -3.0182 H         1 UNK         0.3140 
     76 H76        29.4544   -1.5067   -0.2014 H         1 UNK         0.1085 
     77 H77        29.2367    0.8867   -0.8363 H         1 UNK         0.0836 
     78 H78        30.5400    0.0758   -1.6353 H         1 UNK         0.0836 
     79 H79        31.1092    1.2322   -3.6905 H         1 UNK         0.0731 
     80 H80        30.0954    1.3772   -5.1007 H         1 UNK         0.0731 
     81 H81        32.2210   -0.9043   -3.2028 H         1 UNK         0.1312 
     82 H82        31.5788   -4.2442   -5.8167 H         1 UNK         0.1406 
     83 H83        29.2600   -0.6666   -6.2891 H         1 UNK         0.1631 
     84 H84        30.2677   -3.7472   -7.9345 H         1 UNK         0.0717 
     85 H85        29.1387   -2.4278   -7.9728 H         1 UNK         0.0717 
     86 H86        26.6111   -3.8646   -5.1021 H         1 UNK         0.0934 
     87 H87        27.6800   -2.5169   -5.1847 H         1 UNK         0.0934 
     88 H88        26.0806   -2.9954   -7.6979 H         1 UNK         0.0739 
     89 H89        24.6423   -2.3544   -5.1809 H         1 UNK         0.3093 
     90 H90        21.5073   -2.4945   -6.7744 H         1 UNK         0.0818 
     91 H91        21.8962   -4.9547   -6.5953 H         1 UNK         0.0819 
     92 H92        22.6589   -4.7387   -5.0261 H         1 UNK         0.0819 
     93 H93        20.9471   -4.3676   -5.2409 H         1 UNK         0.0819 
     94 H94        22.3106   -2.5066   -4.0064 H         1 UNK         0.3041 
     95 H95        22.8633    0.9747   -3.7109 H         1 UNK         0.0784 
     96 H96        20.3629    0.8415   -3.7209 H         1 UNK         0.0793 
     97 H97        20.4346   -0.6153   -2.7389 H         1 UNK         0.0793 
     98 H98        21.0081    0.9228   -2.0918 H         1 UNK         0.0793 
     99 H99        22.7361   -0.7237   -1.5923 H         1 UNK         0.3024 
    100 H100       24.7865   -1.0663   -0.5300 H         1 UNK         0.1171 
    101 H101       23.5570   -3.2107   -0.9627 H         1 UNK         0.0786 
    102 H102       24.8810   -3.7962   -1.9637 H         1 UNK         0.0786 
    103 H103       25.1172   -3.5544   -0.2348 H         1 UNK         0.0786 
    104 H104       26.8434   -1.9372   -2.4812 H         1 UNK         0.2977 
    105 H105       25.4404   -0.4441   -5.3516 H         1 UNK         0.3127 
    106 H106       27.3642    1.4060   -5.9075 H         1 UNK         0.0770 
    107 H107       24.4746    1.9439   -5.0595 H         1 UNK         0.0814 
    108 H108       25.8466    3.0017   -4.7677 H         1 UNK         0.0814 
    109 H109       25.7782    1.4403   -3.9766 H         1 UNK         0.0814 
    110 H110       25.3560    0.5308   -8.3545 H         1 UNK         0.2983 
    111 H111       25.1548    3.0379   -9.8269 H         1 UNK         0.0947 
    112 H112       25.1602    0.1130  -10.7669 H         1 UNK         0.0806 
    113 H113       24.7751    1.5065  -11.7682 H         1 UNK         0.0806 
    114 H114       23.7273    1.0832  -10.4238 H         1 UNK         0.0806 
    115 H115       27.6273    0.6028   -9.1653 H         1 UNK         0.3000 
    116 H116       29.6260    1.9197  -10.9327 H         1 UNK         0.0850 
    117 H117       31.1034    0.0827  -10.1787 H         1 UNK         0.0810 
    118 H118       29.6083   -0.6063  -10.7967 H         1 UNK         0.0810 
    119 H119       29.8833   -0.4974   -9.0574 H         1 UNK         0.0810 
    120 H120       31.1353    3.2952  -10.0464 H         1 UNK         0.3040 
    121 H121       30.5964    4.4848   -7.4921 H         1 UNK         0.0766 
    122 H122       31.3826    5.7949   -9.4540 H         1 UNK         0.0812 
    123 H123       32.9147    4.9164   -9.4580 H         1 UNK         0.0812 
    124 H124       32.5021    5.9734   -8.1146 H         1 UNK         0.0812 
    125 H125       32.6501    1.8186   -8.3616 H         1 UNK         0.3205 
    126 H126       33.6351    1.4787   -5.6886 H         1 UNK         0.0754 
    127 H127       36.0750    1.5026   -6.3374 H         1 UNK         0.0769 
    128 H128       35.3773    3.0972   -6.5479 H         1 UNK         0.0769 
    129 H129       35.6539    2.0651   -7.9506 H         1 UNK         0.0769 
    130 H130       35.0248   -0.5667   -5.6787 H         1 UNK         0.2981 
    131 H131       33.5544   -2.6490   -6.8511 H         1 UNK         0.0541 
    132 H132       35.2434   -3.9455   -9.6848 H         1 UNK         0.3459 
    133 H133       34.0208   -4.2397   -8.4759 H         1 UNK         0.3459 
    134 H134       35.0714   -4.1759   -5.7295 H         1 UNK         0.0612 
    135 H135       36.3437   -2.9875   -5.6608 H         1 UNK         0.0612 
    136 H136       33.1982   -4.4446   -4.0759 H         1 UNK         0.0624 
    137 H137       32.8993   -3.4576   -2.6652 H         1 UNK         0.0624 
@<TRIPOS>BOND
     1    1    2 1    
     2    1   72 1    
     3    1   73 1    
     4    1   74 1    
     5    2    3 2    
     6    2    4 am   BACKBONE|DICT|INTERRES
     7    4    5 1    
     8    4   75 1    
     9    5    6 1    
    10    5   35 1    
    11    5   76 1    
    12    6    7 1    
    13    6   77 1    
    14    6   78 1    
    15    7    8 1    
    16    8    9 1    
    17    8   79 1    
    18    8   80 1    
    19    9   10 ar   
    20    9   14 ar   
    21   10   11 ar   
    22   10   81 1    
    23   11   12 ar   
    24   11   71 1    
    25   12   13 ar   
    26   12   82 1    
    27   13   14 ar   
    28   13   15 1    
    29   14   83 1    
    30   15   16 1    
    31   15   84 1    
    32   15   85 1    
    33   16   17 1    
    34   17   18 1    
    35   17   86 1    
    36   17   87 1    
    37   18   19 1    
    38   18   37 1    
    39   18   88 1    
    40   19   20 am   BACKBONE|DICT|INTERRES
    41   19   89 1    
    42   20   21 2    
    43   20   22 1    
    44   22   23 1    
    45   22   24 1    
    46   22   90 1    
    47   23   91 1    
    48   23   92 1    
    49   23   93 1    
    50   24   25 am   BACKBONE|DICT|INTERRES
    51   24   94 1    
    52   25   26 2    
    53   25   27 1    
    54   27   28 1    
    55   27   29 1    
    56   27   95 1    
    57   28   96 1    
    58   28   97 1    
    59   28   98 1    
    60   29   30 am   BACKBONE|DICT|INTERRES
    61   29   99 1    
    62   30   31 2    
    63   30   32 1    
    64   32   33 1    
    65   32   34 1    
    66   32  100 1    
    67   33  101 1    
    68   33  102 1    
    69   33  103 1    
    70   34   35 am   BACKBONE|DICT|INTERRES
    71   34  104 1    
    72   35   36 2    
    73   37   38 2    
    74   37   39 am   BACKBONE|DICT|INTERRES
    75   39   40 1    
    76   39  105 1    
    77   40   41 1    
    78   40   42 1    
    79   40  106 1    
    80   41  107 1    
    81   41  108 1    
    82   41  109 1    
    83   42   43 2    
    84   42   44 am   BACKBONE|DICT|INTERRES
    85   44   45 1    
    86   44  110 1    
    87   45   46 1    
    88   45   47 1    
    89   45  111 1    
    90   46  112 1    
    91   46  113 1    
    92   46  114 1    
    93   47   48 2    
    94   47   49 am   BACKBONE|DICT|INTERRES
    95   49   50 1    
    96   49  115 1    
    97   50   51 1    
    98   50   52 1    
    99   50  116 1    
   100   51  117 1    
   101   51  118 1    
   102   51  119 1    
   103   52   53 2    
   104   52   54 am   BACKBONE|DICT|INTERRES
   105   54   55 1    
   106   54  120 1    
   107   55   56 1    
   108   55   57 1    
   109   55  121 1    
   110   56  122 1    
   111   56  123 1    
   112   56  124 1    
   113   57   58 2    
   114   57   59 am   BACKBONE|DICT|INTERRES
   115   59   60 1    
   116   59  125 1    
   117   60   61 1    
   118   60   62 1    
   119   60  126 1    
   120   61  127 1    
   121   61  128 1    
   122   61  129 1    
   123   62   63 2    
   124   62   64 am   BACKBONE|DICT|INTERRES
   125   64   65 1    
   126   64  130 1    
   127   65   66 1    
   128   65   69 1    
   129   65  131 1    
   130   66   67 am   BACKBONE|DICT|INTERRES
   131   66   68 2    
   132   67  132 1    
   133   67  133 1    
   134   69   70 1    
   135   69  134 1    
   136   69  135 1    
   137   70   71 1    
   138   71  136 1    
   139   71  137 1    
@<TRIPOS>SUBSTRUCTURE
     1 UNK         1 GROUP             0       ****    0 ROOT    
