@<TRIPOS>MOLECULE
3R137
137   139    1
SMALL
USER_CHARGES


@<TRIPOS>ATOM
      1 CA         30.0830    1.3787   -1.5101 C.3       0 UNK        -0.2020 
      2 C          29.4429    0.0716   -1.9521 C.2       0 UNK         0.4855 
      3 O          28.7908    0.0350   -2.9936 O.2       0 UNK        -0.5197 
      4 N          29.6162   -0.9986   -1.1655 N.am      1 UNK        -0.4892 
      5 CA         29.0958   -2.3461   -1.4272 C.3       1 UNK         0.0835 
      6 C6         29.8939   -3.4298   -0.6557 C.3       12 UNK        -0.0855 
      7 S7         31.6743   -3.4502   -1.0634 S.3       12 UNK        -0.2931 
      8 C8         31.8413   -5.0054   -1.9970 C.3       12 UNK         0.0378 
      9 C9         31.5707   -4.8060   -3.4809 C.ar      12 UNK        -0.0802 
     10 C10        32.6272   -4.5014   -4.3444 C.ar      12 UNK        -0.0944 
     11 C11        32.4022   -4.3418   -5.7143 C.ar      12 UNK        -0.0787 
     12 C12        31.1047   -4.4713   -6.2177 C.ar      12 UNK        -0.0862 
     13 C13        30.0376   -4.7748   -5.3659 C.ar      12 UNK        -0.0733 
     14 C14        30.2795   -4.9514   -3.9982 C.ar      12 UNK        -0.0832 
     15 C15        28.6352   -4.9479   -5.9392 C.3       12 UNK         0.0240 
     16 S16        27.3825   -3.9308   -5.0946 S.3       12 UNK        -0.2522 
     17 C17        27.9164   -2.2369   -5.5100 C.3       12 UNK        -0.0967 
     18 CA         27.0952   -1.5877   -6.6508 C.3       5 UNK         0.0660 
     19 N          25.6478   -1.6744   -6.4458 N.am      5 UNK        -0.4015 
     20 C          24.7314   -1.5517   -7.4157 C.2       4 UNK         0.4946 
     21 O          25.0089   -1.4003   -8.6053 O.2       4 UNK        -0.5353 
     22 CA         23.2520   -1.5971   -6.9920 C.3       4 UNK         0.0277 
     23 CB         22.7252   -3.0403   -7.0420 C.3       4 UNK        -0.1981 
     24 N          23.0126   -1.0384   -5.6584 N.am      4 UNK        -0.4209 
     25 C          23.1412    0.2593   -5.3465 C.2       3 UNK         0.4942 
     26 O          23.4362    1.1331   -6.1611 O.2       3 UNK        -0.5208 
     27 CA         22.9705    0.6342   -3.8617 C.3       3 UNK         0.0250 
     28 CB         21.4847    0.8308   -3.5209 C.3       3 UNK        -0.1990 
     29 N          23.5699   -0.3315   -2.9284 N.am      3 UNK        -0.4232 
     30 C          24.8567   -0.7049   -2.9497 C.2       2 UNK         0.4993 
     31 O          25.6659   -0.2939   -3.7840 O.2       2 UNK        -0.5286 
     32 CA         25.3091   -1.7442   -1.9186 C.3       2 UNK         0.0209 
     33 CB         24.7007   -3.1255   -2.2384 C.3       2 UNK        -0.1931 
     34 N          26.7684   -1.8043   -1.9667 N.am      2 UNK        -0.4546 
     35 C          27.5843   -2.4215   -1.1105 C.2       1 UNK         0.5154 
     36 O          27.1888   -3.0089   -0.1010 O.2       1 UNK        -0.5181 
     37 C          27.5107   -0.1191   -6.8437 C.2       5 UNK         0.5014 
     38 O          28.2677    0.1763   -7.7680 O.2       5 UNK        -0.5248 
     39 N          26.9822    0.7734   -5.9923 N.am      6 UNK        -0.4434 
     40 CA         27.1808    2.2252   -6.0233 C.3       6 UNK         0.0363 
     41 CB         26.5054    2.8556   -4.7963 C.3       6 UNK        -0.1936 
     42 C          26.6819    2.8840   -7.3191 C.2       6 UNK         0.5081 
     43 O          27.3094    3.8282   -7.7976 O.2       6 UNK        -0.5248 
     44 N          25.5869    2.3557   -7.8821 N.am      7 UNK        -0.4718 
     45 CA         25.0543    2.7349   -9.1938 C.3       7 UNK         0.0273 
     46 CB         23.6217    2.1914   -9.3226 C.3       7 UNK        -0.1935 
     47 C          25.9180    2.2547  -10.3783 C.2       7 UNK         0.5018 
     48 O          25.7161    2.7386  -11.4934 O.2       7 UNK        -0.5186 
     49 N          26.8386    1.3148  -10.1301 N.am      8 UNK        -0.4240 
     50 CA         27.7661    0.7462  -11.1004 C.3       8 UNK         0.0235 
     51 CB         27.6071   -0.7895  -11.0960 C.3       8 UNK        -0.2000 
     52 C          29.1868    1.2402  -10.7747 C.2       8 UNK         0.4941 
     53 O          29.4396    2.4428  -10.8635 O.2       8 UNK        -0.5273 
     54 N          30.0969    0.3168  -10.4381 N.am      9 UNK        -0.4262 
     55 CA         31.5183    0.5826  -10.2074 C.3       9 UNK         0.0264 
     56 CB         32.2968   -0.7356  -10.3548 C.3       9 UNK        -0.1955 
     57 C          31.8418    1.2362   -8.8521 C.2       9 UNK         0.5031 
     58 O          32.9190    1.8228   -8.7298 O.2       9 UNK        -0.5390 
     59 N          30.9558    1.0944   -7.8540 N.am      10 UNK        -0.4204 
     60 CA         31.0667    1.5277   -6.4497 C.3       10 UNK         0.0237 
     61 CB         31.1502    3.0619   -6.3351 C.3       10 UNK        -0.1985 
     62 C          32.1783    0.8421   -5.6325 C.2       10 UNK         0.4970 
     63 O          31.9224    0.4480   -4.4958 O.2       10 UNK        -0.4914 
     64 N          33.3726    0.7010   -6.2172 N.am      11 UNK        -0.4285 
     65 CA         34.5309   -0.0413   -5.6907 C.3       11 UNK         0.1007 
     66 C          35.1842    0.5716   -4.4142 C.2       11 UNK         0.5703 
     67 N          34.9114    1.8245   -4.0685 N.am      11 UNK        -0.7361 
     68 O          35.9829   -0.0806   -3.7454 O.2       11 UNK        -0.4986 
     69 C69        34.2477   -1.5656   -5.5528 C.3       12 UNK        -0.0947 
     70 S70        33.6713   -2.3096   -7.1164 S.3       12 UNK        -0.2240 
     71 C71        33.5648   -4.0641   -6.6566 C.3       12 UNK         0.0194 
     72 H72        30.7873    1.7217   -2.2676 H         1 UNK         0.0906 
     73 H73        29.3193    2.1454   -1.3828 H         1 UNK         0.0906 
     74 H74        30.6216    1.2729   -0.5687 H         1 UNK         0.0906 
     75 H75        30.1591   -0.9068   -0.3189 H         1 UNK         0.3140 
     76 H76        29.2103   -2.5543   -2.4940 H         1 UNK         0.1085 
     77 H77        29.8064   -3.2713    0.4210 H         1 UNK         0.0836 
     78 H78        29.4683   -4.4171   -0.8435 H         1 UNK         0.0836 
     79 H79        32.8567   -5.3805   -1.8592 H         1 UNK         0.0731 
     80 H80        31.1859   -5.7741   -1.5850 H         1 UNK         0.0731 
     81 H81        33.6290   -4.3975   -3.9503 H         1 UNK         0.1312 
     82 H82        30.9322   -4.3472   -7.2782 H         1 UNK         0.1406 
     83 H83        29.4599   -5.2006   -3.3383 H         1 UNK         0.1631 
     84 H84        28.3497   -5.9969   -5.8518 H         1 UNK         0.0717 
     85 H85        28.6147   -4.7113   -7.0043 H         1 UNK         0.0717 
     86 H86        27.8269   -1.6491   -4.5992 H         1 UNK         0.0934 
     87 H87        28.9798   -2.2331   -5.7567 H         1 UNK         0.0934 
     88 H88        27.3356   -2.1214   -7.5730 H         1 UNK         0.0739 
     89 H89        25.3418   -1.7417   -5.4859 H         1 UNK         0.3093 
     90 H90        22.6870   -1.0014   -7.7124 H         1 UNK         0.0818 
     91 H91        21.6579   -3.0818   -6.8238 H         1 UNK         0.0819 
     92 H92        22.8680   -3.4723   -8.0337 H         1 UNK         0.0819 
     93 H93        23.2408   -3.6853   -6.3291 H         1 UNK         0.0819 
     94 H94        22.7613   -1.6859   -4.9258 H         1 UNK         0.3041 
     95 H95        23.4806    1.5875   -3.7099 H         1 UNK         0.0784 
     96 H96        21.0237    1.5570   -4.1923 H         1 UNK         0.0793 
     97 H97        20.9211   -0.0988   -3.6099 H         1 UNK         0.0793 
     98 H98        21.3564    1.2061   -2.5055 H         1 UNK         0.0793 
     99 H99        22.9597   -0.7168   -2.2214 H         1 UNK         0.3024 
    100 H100       24.9995   -1.4138   -0.9249 H         1 UNK         0.1171 
    101 H101       23.6110   -3.0966   -2.2084 H         1 UNK         0.0786 
    102 H102       24.9913   -3.4735   -3.2301 H         1 UNK         0.0786 
    103 H103       25.0153   -3.8802   -1.5177 H         1 UNK         0.0786 
    104 H104       27.1798   -1.2291   -2.6998 H         1 UNK         0.2977 
    105 H105       26.4179    0.4186   -5.2193 H         1 UNK         0.3127 
    106 H106       28.2500    2.4180   -5.9510 H         1 UNK         0.0770 
    107 H107       25.4273    2.6938   -4.8044 H         1 UNK         0.0814 
    108 H108       26.6758    3.9324   -4.7662 H         1 UNK         0.0814 
    109 H109       26.9002    2.4363   -3.8701 H         1 UNK         0.0814 
    110 H110       25.0774    1.6407   -7.3731 H         1 UNK         0.2983 
    111 H111       25.0146    3.8251   -9.2441 H         1 UNK         0.0947 
    112 H112       23.1780    2.4739  -10.2782 H         1 UNK         0.0806 
    113 H113       22.9759    2.5854   -8.5375 H         1 UNK         0.0806 
    114 H114       23.5989    1.1026   -9.2598 H         1 UNK         0.0806 
    115 H115       26.9811    1.0191   -9.1712 H         1 UNK         0.3000 
    116 H116       27.5343    1.1026  -12.1061 H         1 UNK         0.0850 
    117 H117       28.2723   -1.2623  -11.8198 H         1 UNK         0.0810 
    118 H118       26.5902   -1.0719  -11.3701 H         1 UNK         0.0810 
    119 H119       27.8056   -1.2235  -10.1152 H         1 UNK         0.0810 
    120 H120       29.7963   -0.6444  -10.3674 H         1 UNK         0.3040 
    121 H121       31.8662    1.2678  -10.9837 H         1 UNK         0.0766 
    122 H122       33.3659   -0.5796  -10.2021 H         1 UNK         0.0812 
    123 H123       32.1733   -1.1617  -11.3506 H         1 UNK         0.0812 
    124 H124       31.9714   -1.4800   -9.6270 H         1 UNK         0.0812 
    125 H125       30.0826    0.6145   -8.0654 H         1 UNK         0.3205 
    126 H126       30.1350    1.2130   -5.9810 H         1 UNK         0.0754 
    127 H127       31.1124    3.3758   -5.2912 H         1 UNK         0.0769 
    128 H128       30.3174    3.5421   -6.8494 H         1 UNK         0.0769 
    129 H129       32.0748    3.4538   -6.7596 H         1 UNK         0.0769 
    130 H130       33.4756    1.0918   -7.1510 H         1 UNK         0.2981 
    131 H131       35.2997    0.0672   -6.4562 H         1 UNK         0.0541 
    132 H132       35.3479    2.2181   -3.2502 H         1 UNK         0.3459 
    133 H133       34.2654    2.3725   -4.6130 H         1 UNK         0.3459 
    134 H134       33.5021   -1.7478   -4.7775 H         1 UNK         0.0612 
    135 H135       35.1496   -2.0975   -5.2456 H         1 UNK         0.0612 
    136 H136       34.5094   -4.3812   -6.2121 H         1 UNK         0.0624 
    137 H137       33.4432   -4.6556   -7.5651 H         1 UNK         0.0624 
@<TRIPOS>BOND
     1    1    2 1    
     2    1   72 1    
     3    1   73 1    
     4    1   74 1    
     5    2    3 2    
     6    2    4 am   BACKBONE|DICT|INTERRES
     7    4    5 1    
     8    4   75 1    
     9    5    6 1    
    10    5   35 1    
    11    5   76 1    
    12    6    7 1    
    13    6   77 1    
    14    6   78 1    
    15    7    8 1    
    16    8    9 1    
    17    8   79 1    
    18    8   80 1    
    19    9   10 ar   
    20    9   14 ar   
    21   10   11 ar   
    22   10   81 1    
    23   11   12 ar   
    24   11   71 1    
    25   12   13 ar   
    26   12   82 1    
    27   13   14 ar   
    28   13   15 1    
    29   14   83 1    
    30   15   16 1    
    31   15   84 1    
    32   15   85 1    
    33   16   17 1    
    34   17   18 1    
    35   17   86 1    
    36   17   87 1    
    37   18   19 1    
    38   18   37 1    
    39   18   88 1    
    40   19   20 am   BACKBONE|DICT|INTERRES
    41   19   89 1    
    42   20   21 2    
    43   20   22 1    
    44   22   23 1    
    45   22   24 1    
    46   22   90 1    
    47   23   91 1    
    48   23   92 1    
    49   23   93 1    
    50   24   25 am   BACKBONE|DICT|INTERRES
    51   24   94 1    
    52   25   26 2    
    53   25   27 1    
    54   27   28 1    
    55   27   29 1    
    56   27   95 1    
    57   28   96 1    
    58   28   97 1    
    59   28   98 1    
    60   29   30 am   BACKBONE|DICT|INTERRES
    61   29   99 1    
    62   30   31 2    
    63   30   32 1    
    64   32   33 1    
    65   32   34 1    
    66   32  100 1    
    67   33  101 1    
    68   33  102 1    
    69   33  103 1    
    70   34   35 am   BACKBONE|DICT|INTERRES
    71   34  104 1    
    72   35   36 2    
    73   37   38 2    
    74   37   39 am   BACKBONE|DICT|INTERRES
    75   39   40 1    
    76   39  105 1    
    77   40   41 1    
    78   40   42 1    
    79   40  106 1    
    80   41  107 1    
    81   41  108 1    
    82   41  109 1    
    83   42   43 2    
    84   42   44 am   BACKBONE|DICT|INTERRES
    85   44   45 1    
    86   44  110 1    
    87   45   46 1    
    88   45   47 1    
    89   45  111 1    
    90   46  112 1    
    91   46  113 1    
    92   46  114 1    
    93   47   48 2    
    94   47   49 am   BACKBONE|DICT|INTERRES
    95   49   50 1    
    96   49  115 1    
    97   50   51 1    
    98   50   52 1    
    99   50  116 1    
   100   51  117 1    
   101   51  118 1    
   102   51  119 1    
   103   52   53 2    
   104   52   54 am   BACKBONE|DICT|INTERRES
   105   54   55 1    
   106   54  120 1    
   107   55   56 1    
   108   55   57 1    
   109   55  121 1    
   110   56  122 1    
   111   56  123 1    
   112   56  124 1    
   113   57   58 2    
   114   57   59 am   BACKBONE|DICT|INTERRES
   115   59   60 1    
   116   59  125 1    
   117   60   61 1    
   118   60   62 1    
   119   60  126 1    
   120   61  127 1    
   121   61  128 1    
   122   61  129 1    
   123   62   63 2    
   124   62   64 am   BACKBONE|DICT|INTERRES
   125   64   65 1    
   126   64  130 1    
   127   65   66 1    
   128   65   69 1    
   129   65  131 1    
   130   66   67 am   BACKBONE|DICT|INTERRES
   131   66   68 2    
   132   67  132 1    
   133   67  133 1    
   134   69   70 1    
   135   69  134 1    
   136   69  135 1    
   137   70   71 1    
   138   71  136 1    
   139   71  137 1    
@<TRIPOS>SUBSTRUCTURE
     1 UNK         1 GROUP             0       ****    0 ROOT    
