@<TRIPOS>MOLECULE
3R137
137   139    1
SMALL
USER_CHARGES


@<TRIPOS>ATOM
      1 CA         29.8066   -0.7314   -3.9361 C.3       0 UNK        -0.2020 
      2 C          30.2651   -0.7258   -2.4811 C.2       0 UNK         0.4855 
      3 O          30.9756    0.1934   -2.0810 O.2       0 UNK        -0.5197 
      4 N          29.8896   -1.7105   -1.6499 N.am      1 UNK        -0.4892 
      5 CA         29.0122   -2.8529   -1.9572 C.3       1 UNK         0.0835 
      6 C6         29.1957   -4.0228   -0.9530 C.3       12 UNK        -0.0855 
      7 S7         30.9257   -4.5731   -0.7543 S.3       12 UNK        -0.2931 
      8 C8         31.0313   -5.9505   -1.9448 C.3       12 UNK         0.0378 
      9 C9         30.9938   -5.4492   -3.3805 C.ar      12 UNK        -0.0802 
     10 C10        32.0533   -4.6857   -3.8773 C.ar      12 UNK        -0.0944 
     11 C11        32.0069   -4.1581   -5.1704 C.ar      12 UNK        -0.0787 
     12 C12        30.9022   -4.4290   -5.9827 C.ar      12 UNK        -0.0862 
     13 C13        29.8447   -5.2111   -5.5051 C.ar      12 UNK        -0.0733 
     14 C14        29.8972   -5.7217   -4.2040 C.ar      12 UNK        -0.0832 
     15 C15        28.6373   -5.4936   -6.3896 C.3       12 UNK         0.0240 
     16 S16        27.1467   -4.6264   -5.8033 S.3       12 UNK        -0.2522 
     17 C17        27.6406   -2.8800   -5.9776 C.3       12 UNK        -0.0967 
     18 CA         26.6628   -2.0808   -6.8629 C.3       5 UNK         0.0660 
     19 N          25.3430   -1.9372   -6.2507 N.am      5 UNK        -0.4015 
     20 C          24.1946   -1.9067   -6.9385 C.2       4 UNK         0.4946 
     21 O          24.1148   -2.0702   -8.1568 O.2       4 UNK        -0.5353 
     22 CA         22.9104   -1.6289   -6.1372 C.3       4 UNK         0.0277 
     23 CB         22.3133   -2.9423   -5.6062 C.3       4 UNK        -0.1981 
     24 N          23.1029   -0.6963   -5.0233 N.am      4 UNK        -0.4209 
     25 C          23.5041    0.5767   -5.1503 C.2       3 UNK         0.4942 
     26 O          23.7545    1.1172   -6.2276 O.2       3 UNK        -0.5208 
     27 CA         23.6955    1.3734   -3.8494 C.3       3 UNK         0.0250 
     28 CB         22.3655    2.0106   -3.4155 C.3       3 UNK        -0.1990 
     29 N          24.2606    0.6125   -2.7264 N.am      3 UNK        -0.4232 
     30 C          25.3876   -0.1155   -2.7432 C.2       2 UNK         0.4993 
     31 O          26.0508   -0.3266   -3.7624 O.2       2 UNK        -0.5286 
     32 CA         25.8439   -0.6697   -1.3798 C.3       2 UNK         0.0209 
     33 CB         24.7895   -1.6120   -0.7574 C.3       2 UNK        -0.1931 
     34 N          27.1700   -1.3047   -1.4254 N.am      2 UNK        -0.4546 
     35 C          27.5192   -2.4590   -2.0164 C.2       1 UNK         0.5154 
     36 O          26.7261   -3.2132   -2.5785 O.2       1 UNK        -0.5181 
     37 C          27.2471   -0.6990   -7.1923 C.2       5 UNK         0.5014 
     38 O          27.7994   -0.5346   -8.2793 O.2       5 UNK        -0.5248 
     39 N          27.1132    0.2736   -6.2759 N.am      6 UNK        -0.4434 
     40 CA         27.6898    1.6175   -6.3982 C.3       6 UNK         0.0363 
     41 CB         27.4886    2.4015   -5.0940 C.3       6 UNK        -0.1936 
     42 C          27.1819    2.4217   -7.6068 C.2       6 UNK         0.5081 
     43 O          27.9212    3.2584   -8.1239 O.2       6 UNK        -0.5248 
     44 N          25.9576    2.1286   -8.0665 N.am      7 UNK        -0.4718 
     45 CA         25.3913    2.6479   -9.3140 C.3       7 UNK         0.0273 
     46 CB         23.9084    2.2516   -9.3941 C.3       7 UNK        -0.1935 
     47 C          26.1397    2.1824  -10.5801 C.2       7 UNK         0.5018 
     48 O          26.0787    2.8799  -11.5937 O.2       7 UNK        -0.5186 
     49 N          26.8201    1.0292  -10.5091 N.am      8 UNK        -0.4240 
     50 CA         27.6379    0.4725  -11.5863 C.3       8 UNK         0.0235 
     51 CB         27.3830   -1.0405  -11.6978 C.3       8 UNK        -0.2000 
     52 C          29.1291    0.7575  -11.3539 C.2       8 UNK         0.4941 
     53 O          29.8082    1.1835  -12.2892 O.2       8 UNK        -0.5273 
     54 N          29.6158    0.5235  -10.1279 N.am      9 UNK        -0.4262 
     55 CA         31.0097    0.7055   -9.7348 C.3       9 UNK         0.0264 
     56 CB         31.8228   -0.5580  -10.0768 C.3       9 UNK        -0.1955 
     57 C          31.0731    1.0273   -8.2388 C.2       9 UNK         0.5031 
     58 O          30.9564    0.1209   -7.4111 O.2       9 UNK        -0.5390 
     59 N          31.2696    2.3095   -7.9077 N.am      10 UNK        -0.4204 
     60 CA         31.4672    2.8070   -6.5431 C.3       10 UNK         0.0237 
     61 CB         31.1171    4.3059   -6.4977 C.3       10 UNK        -0.1985 
     62 C          32.8965    2.5133   -6.0512 C.2       10 UNK         0.4970 
     63 O          33.7076    3.4311   -5.9154 O.2       10 UNK        -0.4914 
     64 N          33.1825    1.2256   -5.8347 N.am      11 UNK        -0.4285 
     65 CA         34.4762    0.6982   -5.3767 C.3       11 UNK         0.1007 
     66 C          34.9012    1.1173   -3.9380 C.2       11 UNK         0.5703 
     67 N          33.9859    1.5204   -3.0644 N.am      11 UNK        -0.7361 
     68 O          36.0871    1.0877   -3.6169 O.2       11 UNK        -0.4986 
     69 C69        34.5586   -0.8377   -5.5815 C.3       12 UNK        -0.0947 
     70 S70        33.2319   -1.7386   -4.7124 S.3       12 UNK        -0.2240 
     71 C71        33.1409   -3.2777   -5.6737 C.3       12 UNK         0.0194 
     72 H72        30.0630   -1.6686   -4.4289 H         1 UNK         0.0906 
     73 H73        28.7329   -0.5691   -4.0006 H         1 UNK         0.0906 
     74 H74        30.2942    0.0678   -4.4938 H         1 UNK         0.0906 
     75 H75        30.2520   -1.6997   -0.7067 H         1 UNK         0.3140 
     76 H76        29.2739   -3.2292   -2.9467 H         1 UNK         0.1085 
     77 H77        28.8334   -3.7322    0.0354 H         1 UNK         0.0836 
     78 H78        28.5879   -4.8798   -1.2511 H         1 UNK         0.0836 
     79 H79        31.9662   -6.4881   -1.7802 H         1 UNK         0.0731 
     80 H80        30.2293   -6.6650   -1.7529 H         1 UNK         0.0731 
     81 H81        32.8997   -4.4665   -3.2403 H         1 UNK         0.1312 
     82 H82        30.8604   -4.0204   -6.9833 H         1 UNK         0.1406 
     83 H83        29.0705   -6.3102   -3.8288 H         1 UNK         0.1631 
     84 H84        28.4413   -6.5666   -6.3987 H         1 UNK         0.0717 
     85 H85        28.8340   -5.2094   -7.4247 H         1 UNK         0.0717 
     86 H86        28.6489   -2.8277   -6.3912 H         1 UNK         0.0934 
     87 H87        27.6973   -2.4452   -4.9812 H         1 UNK         0.0934 
     88 H88        26.5659   -2.6170   -7.8099 H         1 UNK         0.0739 
     89 H89        25.3271   -1.7568   -5.2543 H         1 UNK         0.3093 
     90 H90        22.1901   -1.1767   -6.8225 H         1 UNK         0.0818 
     91 H91        21.3547   -2.7739   -5.1150 H         1 UNK         0.0819 
     92 H92        22.1383   -3.6474   -6.4202 H         1 UNK         0.0819 
     93 H93        22.9781   -3.4293   -4.8914 H         1 UNK         0.0819 
     94 H94        22.9301   -1.0503   -4.0938 H         1 UNK         0.3041 
     95 H95        24.3914    2.1831   -4.0680 H         1 UNK         0.0784 
     96 H96        21.9306    2.5975   -4.2261 H         1 UNK         0.0793 
     97 H97        21.6303    1.2579   -3.1278 H         1 UNK         0.0793 
     98 H98        22.5043    2.6856   -2.5707 H         1 UNK         0.0793 
     99 H99        23.7837    0.7232   -1.8431 H         1 UNK         0.3024 
    100 H100       25.9549    0.1919   -0.7190 H         1 UNK         0.1171 
    101 H101       25.1515   -2.0523    0.1718 H         1 UNK         0.0786 
    102 H102       24.5204   -2.4271   -1.4299 H         1 UNK         0.0786 
    103 H103       23.8698   -1.0777   -0.5176 H         1 UNK         0.0786 
    104 H104       27.9203   -0.7652   -1.0159 H         1 UNK         0.2977 
    105 H105       26.6504    0.0603   -5.3923 H         1 UNK         0.3127 
    106 H106       28.7597    1.4780   -6.5390 H         1 UNK         0.0770 
    107 H107       26.4353    2.6024   -4.9086 H         1 UNK         0.0814 
    108 H108       27.9998    3.3641   -5.1381 H         1 UNK         0.0814 
    109 H109       27.8876    1.8621   -4.2350 H         1 UNK         0.0814 
    110 H110       25.3788    1.4873   -7.5335 H         1 UNK         0.2983 
    111 H111       25.4557    3.7377   -9.2821 H         1 UNK         0.0947 
    112 H112       23.4503    2.6260  -10.3107 H         1 UNK         0.0806 
    113 H113       23.3428    2.6642   -8.5584 H         1 UNK         0.0806 
    114 H114       23.7802    1.1682   -9.3813 H         1 UNK         0.0806 
    115 H115       26.8655    0.5436   -9.6187 H         1 UNK         0.3000 
    116 H116       27.3580    0.9256  -12.5399 H         1 UNK         0.0850 
    117 H117       27.9750   -1.4763  -12.5037 H         1 UNK         0.0810 
    118 H118       26.3355   -1.2488  -11.9158 H         1 UNK         0.0810 
    119 H119       27.6435   -1.5690  -10.7800 H         1 UNK         0.0810 
    120 H120       28.9952    0.1626   -9.4016 H         1 UNK         0.3040 
    121 H121       31.4369    1.5470  -10.2846 H         1 UNK         0.0766 
    122 H122       31.8433   -0.7385  -11.1516 H         1 UNK         0.0812 
    123 H123       32.8567   -0.4591   -9.7438 H         1 UNK         0.0812 
    124 H124       31.4082   -1.4454   -9.5966 H         1 UNK         0.0812 
    125 H125       31.3538    2.9924   -8.6471 H         1 UNK         0.3205 
    126 H126       30.7843    2.2902   -5.8669 H         1 UNK         0.0754 
    127 H127       31.2445    4.7060   -5.4909 H         1 UNK         0.0769 
    128 H128       30.0790    4.4776   -6.7835 H         1 UNK         0.0769 
    129 H129       31.7497    4.8922   -7.1653 H         1 UNK         0.0769 
    130 H130       32.4643    0.5360   -6.0292 H         1 UNK         0.2981 
    131 H131       35.2283    1.1384   -6.0343 H         1 UNK         0.0541 
    132 H132       33.0054    1.4860   -3.2956 H         1 UNK         0.3459 
    133 H133       34.2744    1.7908   -2.1381 H         1 UNK         0.3459 
    134 H134       35.5246   -1.2271   -5.2550 H         1 UNK         0.0612 
    135 H135       34.4902   -1.0614   -6.6473 H         1 UNK         0.0612 
    136 H136       33.0033   -3.0345   -6.7285 H         1 UNK         0.0624 
    137 H137       34.0869   -3.8147   -5.5916 H         1 UNK         0.0624 
@<TRIPOS>BOND
     1    1    2 1    
     2    1   72 1    
     3    1   73 1    
     4    1   74 1    
     5    2    3 2    
     6    2    4 am   BACKBONE|DICT|INTERRES
     7    4    5 1    
     8    4   75 1    
     9    5    6 1    
    10    5   35 1    
    11    5   76 1    
    12    6    7 1    
    13    6   77 1    
    14    6   78 1    
    15    7    8 1    
    16    8    9 1    
    17    8   79 1    
    18    8   80 1    
    19    9   10 ar   
    20    9   14 ar   
    21   10   11 ar   
    22   10   81 1    
    23   11   12 ar   
    24   11   71 1    
    25   12   13 ar   
    26   12   82 1    
    27   13   14 ar   
    28   13   15 1    
    29   14   83 1    
    30   15   16 1    
    31   15   84 1    
    32   15   85 1    
    33   16   17 1    
    34   17   18 1    
    35   17   86 1    
    36   17   87 1    
    37   18   19 1    
    38   18   37 1    
    39   18   88 1    
    40   19   20 am   BACKBONE|DICT|INTERRES
    41   19   89 1    
    42   20   21 2    
    43   20   22 1    
    44   22   23 1    
    45   22   24 1    
    46   22   90 1    
    47   23   91 1    
    48   23   92 1    
    49   23   93 1    
    50   24   25 am   BACKBONE|DICT|INTERRES
    51   24   94 1    
    52   25   26 2    
    53   25   27 1    
    54   27   28 1    
    55   27   29 1    
    56   27   95 1    
    57   28   96 1    
    58   28   97 1    
    59   28   98 1    
    60   29   30 am   BACKBONE|DICT|INTERRES
    61   29   99 1    
    62   30   31 2    
    63   30   32 1    
    64   32   33 1    
    65   32   34 1    
    66   32  100 1    
    67   33  101 1    
    68   33  102 1    
    69   33  103 1    
    70   34   35 am   BACKBONE|DICT|INTERRES
    71   34  104 1    
    72   35   36 2    
    73   37   38 2    
    74   37   39 am   BACKBONE|DICT|INTERRES
    75   39   40 1    
    76   39  105 1    
    77   40   41 1    
    78   40   42 1    
    79   40  106 1    
    80   41  107 1    
    81   41  108 1    
    82   41  109 1    
    83   42   43 2    
    84   42   44 am   BACKBONE|DICT|INTERRES
    85   44   45 1    
    86   44  110 1    
    87   45   46 1    
    88   45   47 1    
    89   45  111 1    
    90   46  112 1    
    91   46  113 1    
    92   46  114 1    
    93   47   48 2    
    94   47   49 am   BACKBONE|DICT|INTERRES
    95   49   50 1    
    96   49  115 1    
    97   50   51 1    
    98   50   52 1    
    99   50  116 1    
   100   51  117 1    
   101   51  118 1    
   102   51  119 1    
   103   52   53 2    
   104   52   54 am   BACKBONE|DICT|INTERRES
   105   54   55 1    
   106   54  120 1    
   107   55   56 1    
   108   55   57 1    
   109   55  121 1    
   110   56  122 1    
   111   56  123 1    
   112   56  124 1    
   113   57   58 2    
   114   57   59 am   BACKBONE|DICT|INTERRES
   115   59   60 1    
   116   59  125 1    
   117   60   61 1    
   118   60   62 1    
   119   60  126 1    
   120   61  127 1    
   121   61  128 1    
   122   61  129 1    
   123   62   63 2    
   124   62   64 am   BACKBONE|DICT|INTERRES
   125   64   65 1    
   126   64  130 1    
   127   65   66 1    
   128   65   69 1    
   129   65  131 1    
   130   66   67 am   BACKBONE|DICT|INTERRES
   131   66   68 2    
   132   67  132 1    
   133   67  133 1    
   134   69   70 1    
   135   69  134 1    
   136   69  135 1    
   137   70   71 1    
   138   71  136 1    
   139   71  137 1    
@<TRIPOS>SUBSTRUCTURE
     1 UNK         1 GROUP             0       ****    0 ROOT    
