@<TRIPOS>MOLECULE
3R137
137   139    1
SMALL
USER_CHARGES


@<TRIPOS>ATOM
      1 CA         28.4866   -6.5108   -4.2521 C.3       0 UNK        -0.2020 
      2 C          27.8292   -6.0746   -2.9526 C.2       0 UNK         0.4855 
      3 O          27.2514   -6.9030   -2.2484 O.2       0 UNK        -0.5197 
      4 N          27.9029   -4.7793   -2.6355 N.am      1 UNK        -0.4892 
      5 CA         27.2750   -4.1505   -1.4773 C.3       1 UNK         0.0835 
      6 C6         28.0663   -4.3989   -0.1589 C.3       12 UNK        -0.0855 
      7 S7         29.4970   -3.3192    0.2041 S.3       12 UNK        -0.2931 
      8 C8         30.8188   -3.9800   -0.8742 C.3       12 UNK         0.0378 
      9 C9         30.8967   -3.2609   -2.2183 C.ar      12 UNK        -0.0802 
     10 C10        31.0540   -3.9831   -3.4054 C.ar      12 UNK        -0.0944 
     11 C11        31.0866   -3.3321   -4.6443 C.ar      12 UNK        -0.0787 
     12 C12        30.9382   -1.9383   -4.6825 C.ar      12 UNK        -0.0862 
     13 C13        30.8145   -1.1991   -3.5035 C.ar      12 UNK        -0.0733 
     14 C14        30.8214   -1.8670   -2.2775 C.ar      12 UNK        -0.0832 
     15 C15        30.6699    0.3173   -3.5499 C.3       12 UNK         0.0240 
     16 S16        29.2234    0.8713   -2.5856 S.3       12 UNK        -0.2522 
     17 C17        28.4185    2.1341   -3.6256 C.3       12 UNK        -0.0967 
     18 CA         28.0825    1.7146   -5.0825 C.3       5 UNK         0.0660 
     19 N          27.6083    0.3345   -5.2199 N.am      5 UNK        -0.4015 
     20 C          27.4814   -0.3027   -6.3936 C.2       4 UNK         0.4946 
     21 O          27.8512    0.1705   -7.4698 O.2       4 UNK        -0.5353 
     22 CA         26.7772   -1.6689   -6.3783 C.3       4 UNK         0.0277 
     23 CB         27.7816   -2.8163   -6.2023 C.3       4 UNK        -0.1981 
     24 N          25.7484   -1.7430   -5.3385 N.am      4 UNK        -0.4209 
     25 C          24.5591   -1.1279   -5.4240 C.2       3 UNK         0.4942 
     26 O          24.2009   -0.4789   -6.4050 O.2       3 UNK        -0.5208 
     27 CA         23.6211   -1.2124   -4.2066 C.3       3 UNK         0.0250 
     28 CB         22.7103   -2.4452   -4.3163 C.3       3 UNK        -0.1990 
     29 N          24.3278   -1.2411   -2.9250 N.am      3 UNK        -0.4232 
     30 C          25.1141   -0.2602   -2.4590 C.2       2 UNK         0.4993 
     31 O          25.2860    0.8121   -3.0411 O.2       2 UNK        -0.5286 
     32 CA         25.8806   -0.5521   -1.1543 C.3       2 UNK         0.0209 
     33 CB         25.0724   -0.0722    0.0613 C.3       2 UNK        -0.1931 
     34 N          26.2534   -1.9646   -0.9699 N.am      2 UNK        -0.4546 
     35 C          26.9944   -2.6767   -1.8324 C.2       1 UNK         0.5154 
     36 O          27.3986   -2.2222   -2.9072 O.2       1 UNK        -0.5181 
     37 C          27.0700    2.6969   -5.7010 C.2       5 UNK         0.5014 
     38 O          27.4674    3.5661   -6.4765 O.2       5 UNK        -0.5248 
     39 N          25.7787    2.5121   -5.3812 N.am      6 UNK        -0.4434 
     40 CA         24.6583    3.2858   -5.9276 C.3       6 UNK         0.0363 
     41 CB         23.3585    2.8858   -5.2123 C.3       6 UNK        -0.1936 
     42 C          24.5066    3.1441   -7.4536 C.2       6 UNK         0.5081 
     43 O          24.2090    4.1312   -8.1262 O.2       6 UNK        -0.5248 
     44 N          24.7521    1.9348   -7.9767 N.am      7 UNK        -0.4718 
     45 CA         24.7985    1.6310   -9.4110 C.3       7 UNK         0.0273 
     46 CB         24.6753    0.1103   -9.6025 C.3       7 UNK        -0.1935 
     47 C          26.0627    2.1545  -10.1224 C.2       7 UNK         0.5018 
     48 O          26.1082    2.1057  -11.3524 O.2       7 UNK        -0.5186 
     49 N          27.0564    2.6278   -9.3540 N.am      8 UNK        -0.4240 
     50 CA         28.3660    3.1253   -9.7856 C.3       8 UNK         0.0235 
     51 CB         28.2222    4.4209  -10.6129 C.3       8 UNK        -0.2000 
     52 C          29.2081    2.0430  -10.4870 C.2       8 UNK         0.4941 
     53 O          29.7997    2.3029  -11.5365 O.2       8 UNK        -0.5273 
     54 N          29.2609    0.8455   -9.8843 N.am      9 UNK        -0.4262 
     55 CA         30.0215   -0.3075  -10.3816 C.3       9 UNK         0.0264 
     56 CB         29.5368   -1.5709   -9.6550 C.3       9 UNK        -0.1955 
     57 C          31.5528   -0.1625  -10.2553 C.2       9 UNK         0.5031 
     58 O          32.2761   -0.9477  -10.8683 O.2       9 UNK        -0.5390 
     59 N          32.0162    0.8164   -9.4620 N.am      10 UNK        -0.4204 
     60 CA         33.4105    1.2267   -9.2225 C.3       10 UNK         0.0237 
     61 CB         34.1186    1.6108  -10.5391 C.3       10 UNK        -0.1985 
     62 C          34.2587    0.2526   -8.3793 C.2       10 UNK         0.4970 
     63 O          35.4003    0.5873   -8.0577 O.2       10 UNK        -0.4914 
     64 N          33.6996   -0.9024   -8.0038 N.am      11 UNK        -0.4285 
     65 CA         34.2545   -1.8402   -7.0175 C.3       11 UNK         0.1007 
     66 C          34.2301   -1.2914   -5.5600 C.2       11 UNK         0.5703 
     67 N          34.8606   -1.9892   -4.6244 N.am      11 UNK        -0.7361 
     68 O          33.6603   -0.2417   -5.2657 O.2       11 UNK        -0.4986 
     69 C69        33.6301   -3.2595   -7.1602 C.3       12 UNK        -0.0947 
     70 S70        31.8177   -3.2889   -7.3928 S.3       12 UNK        -0.2240 
     71 C71        31.2262   -4.1764   -5.9122 C.3       12 UNK         0.0194 
     72 H72        29.4663   -6.9444   -4.0541 H         1 UNK         0.0906 
     73 H73        27.8752   -7.2616   -4.7522 H         1 UNK         0.0906 
     74 H74        28.6080   -5.6725   -4.9357 H         1 UNK         0.0906 
     75 H75        28.3574   -4.1086   -3.2453 H         1 UNK         0.3140 
     76 H76        26.2912   -4.6118   -1.3625 H         1 UNK         0.1085 
     77 H77        28.3911   -5.4389   -0.1017 H         1 UNK         0.0836 
     78 H78        27.3796   -4.2809    0.6806 H         1 UNK         0.0836 
     79 H79        30.6749   -5.0528   -1.0111 H         1 UNK         0.0731 
     80 H80        31.7760   -3.8584   -0.3657 H         1 UNK         0.0731 
     81 H81        31.1387   -5.0604   -3.3661 H         1 UNK         0.1312 
     82 H82        30.9263   -1.4160   -5.6280 H         1 UNK         0.1406 
     83 H83        30.7229   -1.2968   -1.3642 H         1 UNK         0.1631 
     84 H84        30.6041    0.6605   -4.5812 H         1 UNK         0.0717 
     85 H85        31.5697    0.7731   -3.1352 H         1 UNK         0.0717 
     86 H86        27.5127    2.4240   -3.0887 H         1 UNK         0.0934 
     87 H87        29.0507    3.0239   -3.6335 H         1 UNK         0.0934 
     88 H88        28.9966    1.7978   -5.6733 H         1 UNK         0.0739 
     89 H89        27.3182   -0.1311   -4.3700 H         1 UNK         0.3093 
     90 H90        26.2940   -1.7998   -7.3485 H         1 UNK         0.0818 
     91 H91        28.5326   -2.8033   -6.9919 H         1 UNK         0.0819 
     92 H92        28.3088   -2.7489   -5.2525 H         1 UNK         0.0819 
     93 H93        27.2864   -3.7862   -6.2436 H         1 UNK         0.0819 
     94 H94        26.0168   -2.1872   -4.4679 H         1 UNK         0.3041 
     95 H95        22.9912   -0.3207   -4.2151 H         1 UNK         0.0784 
     96 H96        22.1536   -2.4354   -5.2546 H         1 UNK         0.0793 
     97 H97        23.2806   -3.3746   -4.2857 H         1 UNK         0.0793 
     98 H98        21.9785   -2.4719   -3.5087 H         1 UNK         0.0793 
     99 H99        24.2432   -2.0832   -2.3749 H         1 UNK         0.3024 
    100 H100       26.8062    0.0243   -1.1951 H         1 UNK         0.1171 
    101 H101       25.6473   -0.1669    0.9827 H         1 UNK         0.0786 
    102 H102       24.8016    0.9798   -0.0415 H         1 UNK         0.0786 
    103 H103       24.1471   -0.6370    0.1812 H         1 UNK         0.0786 
    104 H104       25.9539   -2.4008   -0.1095 H         1 UNK         0.2977 
    105 H105       25.5500    1.8030   -4.6878 H         1 UNK         0.3127 
    106 H106       24.8544    4.3384   -5.7132 H         1 UNK         0.0770 
    107 H107       23.0989    1.8441   -5.4009 H         1 UNK         0.0814 
    108 H108       22.5222    3.4964   -5.5550 H         1 UNK         0.0814 
    109 H109       23.4396    3.0210   -4.1335 H         1 UNK         0.0814 
    110 H110       24.8936    1.1523   -7.3446 H         1 UNK         0.2983 
    111 H111       23.9396    2.1070   -9.8890 H         1 UNK         0.0947 
    112 H112       24.6448   -0.1513  -10.6610 H         1 UNK         0.0806 
    113 H113       23.7627   -0.2760   -9.1483 H         1 UNK         0.0806 
    114 H114       25.5210   -0.4174   -9.1613 H         1 UNK         0.0806 
    115 H115       26.9141    2.6197   -8.3508 H         1 UNK         0.3000 
    116 H116       28.9057    3.3817   -8.8728 H         1 UNK         0.0850 
    117 H117       29.1984    4.8587  -10.8245 H         1 UNK         0.0810 
    118 H118       27.6411    5.1705  -10.0756 H         1 UNK         0.0810 
    119 H119       27.7338    4.2405  -11.5710 H         1 UNK         0.0810 
    120 H120       28.7243    0.6975   -9.0293 H         1 UNK         0.3040 
    121 H121       29.7985   -0.4224  -11.4445 H         1 UNK         0.0766 
    122 H122       28.4670   -1.7266   -9.7959 H         1 UNK         0.0812 
    123 H123       29.7267   -1.5064   -8.5840 H         1 UNK         0.0812 
    124 H124       30.0473   -2.4609  -10.0257 H         1 UNK         0.0812 
    125 H125       31.3203    1.3699   -8.9828 H         1 UNK         0.3205 
    126 H126       33.3392    2.1353   -8.6226 H         1 UNK         0.0754 
    127 H127       35.0895    2.0673  -10.3424 H         1 UNK         0.0769 
    128 H128       33.5326    2.3321  -11.1090 H         1 UNK         0.0769 
    129 H129       34.2948    0.7431  -11.1754 H         1 UNK         0.0769 
    130 H130       32.7657   -1.1123   -8.3217 H         1 UNK         0.2981 
    131 H131       35.3147   -1.9420   -7.2572 H         1 UNK         0.0541 
    132 H132       35.3396   -2.8480   -4.8434 H         1 UNK         0.3459 
    133 H133       34.8488   -1.6493   -3.6762 H         1 UNK         0.3459 
    134 H134       34.0577   -3.7370   -8.0429 H         1 UNK         0.0612 
    135 H135       33.9092   -3.9062   -6.3272 H         1 UNK         0.0612 
    136 H136       31.8797   -5.0302   -5.7271 H         1 UNK         0.0624 
    137 H137       30.2475   -4.5891   -6.1528 H         1 UNK         0.0624 
@<TRIPOS>BOND
     1    1    2 1    
     2    1   72 1    
     3    1   73 1    
     4    1   74 1    
     5    2    3 2    
     6    2    4 am   BACKBONE|DICT|INTERRES
     7    4    5 1    
     8    4   75 1    
     9    5    6 1    
    10    5   35 1    
    11    5   76 1    
    12    6    7 1    
    13    6   77 1    
    14    6   78 1    
    15    7    8 1    
    16    8    9 1    
    17    8   79 1    
    18    8   80 1    
    19    9   10 ar   
    20    9   14 ar   
    21   10   11 ar   
    22   10   81 1    
    23   11   12 ar   
    24   11   71 1    
    25   12   13 ar   
    26   12   82 1    
    27   13   14 ar   
    28   13   15 1    
    29   14   83 1    
    30   15   16 1    
    31   15   84 1    
    32   15   85 1    
    33   16   17 1    
    34   17   18 1    
    35   17   86 1    
    36   17   87 1    
    37   18   19 1    
    38   18   37 1    
    39   18   88 1    
    40   19   20 am   BACKBONE|DICT|INTERRES
    41   19   89 1    
    42   20   21 2    
    43   20   22 1    
    44   22   23 1    
    45   22   24 1    
    46   22   90 1    
    47   23   91 1    
    48   23   92 1    
    49   23   93 1    
    50   24   25 am   BACKBONE|DICT|INTERRES
    51   24   94 1    
    52   25   26 2    
    53   25   27 1    
    54   27   28 1    
    55   27   29 1    
    56   27   95 1    
    57   28   96 1    
    58   28   97 1    
    59   28   98 1    
    60   29   30 am   BACKBONE|DICT|INTERRES
    61   29   99 1    
    62   30   31 2    
    63   30   32 1    
    64   32   33 1    
    65   32   34 1    
    66   32  100 1    
    67   33  101 1    
    68   33  102 1    
    69   33  103 1    
    70   34   35 am   BACKBONE|DICT|INTERRES
    71   34  104 1    
    72   35   36 2    
    73   37   38 2    
    74   37   39 am   BACKBONE|DICT|INTERRES
    75   39   40 1    
    76   39  105 1    
    77   40   41 1    
    78   40   42 1    
    79   40  106 1    
    80   41  107 1    
    81   41  108 1    
    82   41  109 1    
    83   42   43 2    
    84   42   44 am   BACKBONE|DICT|INTERRES
    85   44   45 1    
    86   44  110 1    
    87   45   46 1    
    88   45   47 1    
    89   45  111 1    
    90   46  112 1    
    91   46  113 1    
    92   46  114 1    
    93   47   48 2    
    94   47   49 am   BACKBONE|DICT|INTERRES
    95   49   50 1    
    96   49  115 1    
    97   50   51 1    
    98   50   52 1    
    99   50  116 1    
   100   51  117 1    
   101   51  118 1    
   102   51  119 1    
   103   52   53 2    
   104   52   54 am   BACKBONE|DICT|INTERRES
   105   54   55 1    
   106   54  120 1    
   107   55   56 1    
   108   55   57 1    
   109   55  121 1    
   110   56  122 1    
   111   56  123 1    
   112   56  124 1    
   113   57   58 2    
   114   57   59 am   BACKBONE|DICT|INTERRES
   115   59   60 1    
   116   59  125 1    
   117   60   61 1    
   118   60   62 1    
   119   60  126 1    
   120   61  127 1    
   121   61  128 1    
   122   61  129 1    
   123   62   63 2    
   124   62   64 am   BACKBONE|DICT|INTERRES
   125   64   65 1    
   126   64  130 1    
   127   65   66 1    
   128   65   69 1    
   129   65  131 1    
   130   66   67 am   BACKBONE|DICT|INTERRES
   131   66   68 2    
   132   67  132 1    
   133   67  133 1    
   134   69   70 1    
   135   69  134 1    
   136   69  135 1    
   137   70   71 1    
   138   71  136 1    
   139   71  137 1    
@<TRIPOS>SUBSTRUCTURE
     1 UNK         1 GROUP             0       ****    0 ROOT    
