@<TRIPOS>MOLECULE
3R137
137   139    1
SMALL
USER_CHARGES


@<TRIPOS>ATOM
      1 CA         22.6869   -0.1316   -6.8015 C.3       0 UNK        -0.2020 
      2 C          22.9760   -1.5431   -6.3154 C.2       0 UNK         0.4855 
      3 O          22.1108   -2.4136   -6.4199 O.2       0 UNK        -0.5197 
      4 N          24.1782   -1.7735   -5.7749 N.am      1 UNK        -0.4892 
      5 CA         24.5498   -3.0152   -5.0892 C.3       1 UNK         0.0835 
      6 C6         26.0868   -3.2133   -5.0684 C.3       12 UNK        -0.0855 
      7 S7         26.8120   -3.3952   -6.7333 S.3       12 UNK        -0.2931 
      8 C8         27.9954   -4.7579   -6.4662 C.3       12 UNK         0.0378 
      9 C9         29.2690   -4.2704   -5.7876 C.ar      12 UNK        -0.0802 
     10 C10        30.4068   -3.9931   -6.5507 C.ar      12 UNK        -0.0944 
     11 C11        31.5739   -3.5188   -5.9460 C.ar      12 UNK        -0.0787 
     12 C12        31.6010   -3.3282   -4.5615 C.ar      12 UNK        -0.0862 
     13 C13        30.4722   -3.6073   -3.7848 C.ar      12 UNK        -0.0733 
     14 C14        29.3166   -4.0943   -4.4011 C.ar      12 UNK        -0.0832 
     15 C15        30.4964   -3.3766   -2.2798 C.3       12 UNK         0.0240 
     16 S16        29.3298   -2.0754   -1.7584 S.3       12 UNK        -0.2522 
     17 C17        29.9166   -0.6319   -2.7083 C.3       12 UNK        -0.0967 
     18 CA         28.8827   -0.1714   -3.7703 C.3       5 UNK         0.0660 
     19 N          27.6371    0.2716   -3.1336 N.am      5 UNK        -0.4015 
     20 C          26.4461    0.4650   -3.7127 C.2       4 UNK         0.4946 
     21 O          26.2147    0.2533   -4.9090 O.2       4 UNK        -0.5353 
     22 CA         25.3367    0.9793   -2.7813 C.3       4 UNK         0.0277 
     23 CB         24.0504    1.3609   -3.5365 C.3       4 UNK        -0.1981 
     24 N          25.0225   -0.0080   -1.7447 N.am      4 UNK        -0.4209 
     25 C          25.6787   -0.1328   -0.5809 C.2       3 UNK         0.4942 
     26 O          26.6537    0.5610   -0.2871 O.2       3 UNK        -0.5208 
     27 CA         25.1789   -1.1800    0.4337 C.3       3 UNK         0.0250 
     28 CB         24.3388   -0.4996    1.5271 C.3       3 UNK        -0.1990 
     29 N          24.3859   -2.2481   -0.1788 N.am      3 UNK        -0.4232 
     30 C          24.9038   -3.3434   -0.7496 C.2       2 UNK         0.4993 
     31 O          26.1046   -3.6143   -0.7502 O.2       2 UNK        -0.5286 
     32 CA         23.9350   -4.2835   -1.4954 C.3       2 UNK         0.0209 
     33 CB         22.4492   -4.1231   -1.0955 C.3       2 UNK        -0.1931 
     34 N          24.1180   -4.1441   -2.9470 N.am      2 UNK        -0.4546 
     35 C          23.9956   -3.0055   -3.6471 C.2       1 UNK         0.5154 
     36 O          23.5288   -1.9683   -3.1666 O.2       1 UNK        -0.5181 
     37 C          29.4593    0.9242   -4.6943 C.2       5 UNK         0.5014 
     38 O          30.5598    1.4237   -4.4546 O.2       5 UNK        -0.5248 
     39 N          28.6979    1.3041   -5.7233 N.am      6 UNK        -0.4434 
     40 CA         29.0634    2.3410   -6.6855 C.3       6 UNK         0.0363 
     41 CB         28.6292    3.7246   -6.1735 C.3       6 UNK        -0.1936 
     42 C          28.4926    2.0662   -8.0789 C.2       6 UNK         0.5081 
     43 O          29.1671    2.3669   -9.0638 O.2       6 UNK        -0.5248 
     44 N          27.2858    1.4850   -8.1524 N.am      7 UNK        -0.4718 
     45 CA         26.5621    1.2304   -9.4050 C.3       7 UNK         0.0273 
     46 CB         25.1565    0.7095   -9.0748 C.3       7 UNK        -0.1935 
     47 C          27.2693    0.2762  -10.3846 C.2       7 UNK         0.5018 
     48 O          27.0083    0.3545  -11.5857 O.2       7 UNK        -0.5186 
     49 N          28.1393   -0.5985   -9.8619 N.am      8 UNK        -0.4240 
     50 CA         28.9640   -1.5170  -10.6431 C.3       8 UNK         0.0235 
     51 CB         29.5734   -2.5794   -9.7160 C.3       8 UNK        -0.2000 
     52 C          30.0469   -0.7839  -11.4524 C.2       8 UNK         0.4941 
     53 O          30.0308   -0.8603  -12.6819 O.2       8 UNK        -0.5273 
     54 N          30.9677   -0.1001  -10.7569 N.am      9 UNK        -0.4262 
     55 CA         32.1255    0.5696  -11.3589 C.3       9 UNK         0.0264 
     56 CB         33.1508   -0.4785  -11.8534 C.3       9 UNK        -0.1955 
     57 C          32.7658    1.6009  -10.4104 C.2       9 UNK         0.5031 
     58 O          33.9924    1.7213  -10.4032 O.2       9 UNK        -0.5390 
     59 N          31.9494    2.3256   -9.6248 N.am      10 UNK        -0.4204 
     60 CA         32.3626    3.3496   -8.6473 C.3       10 UNK         0.0237 
     61 CB         32.9142    4.5992   -9.3679 C.3       10 UNK        -0.1985 
     62 C          33.3238    2.7997   -7.5703 C.2       10 UNK         0.4970 
     63 O          34.3429    3.4261   -7.2733 O.2       10 UNK        -0.4914 
     64 N          32.9934    1.6107   -7.0494 N.am      11 UNK        -0.4285 
     65 CA         33.8278    0.7993   -6.1511 C.3       11 UNK         0.1007 
     66 C          34.2176    1.5010   -4.8214 C.2       11 UNK         0.5703 
     67 N          33.2742    2.1029   -4.1097 N.am      11 UNK        -0.7361 
     68 O          35.3846    1.4997   -4.4367 O.2       11 UNK        -0.4986 
     69 C69        33.1858   -0.5848   -5.8777 C.3       12 UNK        -0.0947 
     70 S70        32.8015   -1.5071   -7.4055 S.3       12 UNK        -0.2240 
     71 C71        32.8037   -3.2203   -6.7918 C.3       12 UNK         0.0194 
     72 H72        23.4986    0.5534   -6.5578 H         1 UNK         0.0906 
     73 H73        22.5399   -0.1269   -7.8810 H         1 UNK         0.0906 
     74 H74        21.7789    0.2462   -6.3323 H         1 UNK         0.0906 
     75 H75        24.8432   -1.0134   -5.6655 H         1 UNK         0.3140 
     76 H76        24.0961   -3.8604   -5.6117 H         1 UNK         0.1085 
     77 H77        26.5842   -2.3861   -4.5612 H         1 UNK         0.0836 
     78 H78        26.3315   -4.1056   -4.4927 H         1 UNK         0.0836 
     79 H79        28.2357   -5.1997   -7.4345 H         1 UNK         0.0731 
     80 H80        27.5333   -5.5549   -5.8820 H         1 UNK         0.0731 
     81 H81        30.3867   -4.1478   -7.6193 H         1 UNK         0.1312 
     82 H82        32.5007   -2.9575   -4.0901 H         1 UNK         0.1406 
     83 H83        28.4514   -4.3140   -3.7926 H         1 UNK         0.1631 
     84 H84        31.4988   -3.1098   -1.9412 H         1 UNK         0.0717 
     85 H85        30.2380   -4.3062   -1.7710 H         1 UNK         0.0717 
     86 H86        30.1316    0.1763   -2.0066 H         1 UNK         0.0934 
     87 H87        30.8715   -0.8763   -3.1765 H         1 UNK         0.0934 
     88 H88        28.6529   -1.0269   -4.4092 H         1 UNK         0.0739 
     89 H89        27.6939    0.4446   -2.1361 H         1 UNK         0.3093 
     90 H90        25.7117    1.8902   -2.3093 H         1 UNK         0.0818 
     91 H91        24.2573    2.0925   -4.3186 H         1 UNK         0.0819 
     92 H92        23.5853    0.4985   -4.0109 H         1 UNK         0.0819 
     93 H93        23.3162    1.8049   -2.8645 H         1 UNK         0.0819 
     94 H94        24.3037   -0.6855   -1.9879 H         1 UNK         0.3041 
     95 H95        26.0597   -1.6178    0.9091 H         1 UNK         0.0784 
     96 H96        24.9098    0.2843    2.0268 H         1 UNK         0.0793 
     97 H97        23.4394   -0.0373    1.1182 H         1 UNK         0.0793 
     98 H98        24.0323   -1.2125    2.2929 H         1 UNK         0.0793 
     99 H99        23.3903   -2.0950   -0.2541 H         1 UNK         0.3024 
    100 H100       24.2372   -5.2989   -1.2326 H         1 UNK         0.1171 
    101 H101       22.0384   -3.1502   -1.3656 H         1 UNK         0.0786 
    102 H102       21.8344   -4.8802   -1.5822 H         1 UNK         0.0786 
    103 H103       22.3176   -4.2506   -0.0201 H         1 UNK         0.0786 
    104 H104       24.5152   -4.9508   -3.4086 H         1 UNK         0.2977 
    105 H105       27.7807    0.8730   -5.8022 H         1 UNK         0.3127 
    106 H106       30.1481    2.3425   -6.7923 H         1 UNK         0.0770 
    107 H107       27.5528    3.7721   -6.0050 H         1 UNK         0.0814 
    108 H108       28.8846    4.5057   -6.8910 H         1 UNK         0.0814 
    109 H109       29.1263    3.9730   -5.2356 H         1 UNK         0.0814 
    110 H110       26.7820    1.2838   -7.3009 H         1 UNK         0.2983 
    111 H111       26.4575    2.1874   -9.9213 H         1 UNK         0.0947 
    112 H112       24.5900    0.5015   -9.9838 H         1 UNK         0.0806 
    113 H113       24.5902    1.4478   -8.5077 H         1 UNK         0.0806 
    114 H114       25.1962   -0.2145   -8.4961 H         1 UNK         0.0806 
    115 H115       28.2652   -0.5991   -8.8608 H         1 UNK         0.3000 
    116 H116       28.3138   -2.0311  -11.3547 H         1 UNK         0.0850 
    117 H117       30.2252   -3.2568  -10.2695 H         1 UNK         0.0810 
    118 H118       28.7945   -3.1859   -9.2534 H         1 UNK         0.0810 
    119 H119       30.1663   -2.1320   -8.9182 H         1 UNK         0.0810 
    120 H120       30.9128   -0.0889   -9.7488 H         1 UNK         0.3040 
    121 H121       31.7766    1.1384  -12.2233 H         1 UNK         0.0766 
    122 H122       33.5385   -1.0751  -11.0267 H         1 UNK         0.0812 
    123 H123       34.0018   -0.0014  -12.3412 H         1 UNK         0.0812 
    124 H124       32.7171   -1.1616  -12.5832 H         1 UNK         0.0812 
    125 H125       30.9413    2.1972   -9.7003 H         1 UNK         0.3205 
    126 H126       31.4616    3.6645   -8.1219 H         1 UNK         0.0754 
    127 H127       33.1131    5.4037   -8.6588 H         1 UNK         0.0769 
    128 H128       32.2007    4.9819  -10.0978 H         1 UNK         0.0769 
    129 H129       33.8479    4.3886   -9.8904 H         1 UNK         0.0769 
    130 H130       32.1427    1.1678   -7.3559 H         1 UNK         0.2981 
    131 H131       34.7604    0.6201   -6.6898 H         1 UNK         0.0541 
    132 H132       32.2940    2.0084   -4.3683 H         1 UNK         0.3459 
    133 H133       33.5229    2.5652   -3.2508 H         1 UNK         0.3459 
    134 H134       32.2632   -0.4779   -5.3062 H         1 UNK         0.0612 
    135 H135       33.8590   -1.1892   -5.2673 H         1 UNK         0.0612 
    136 H136       32.8346   -3.8956   -7.6481 H         1 UNK         0.0624 
    137 H137       33.7160   -3.4099   -6.2243 H         1 UNK         0.0624 
@<TRIPOS>BOND
     1    1    2 1    
     2    1   72 1    
     3    1   73 1    
     4    1   74 1    
     5    2    3 2    
     6    2    4 am   BACKBONE|DICT|INTERRES
     7    4    5 1    
     8    4   75 1    
     9    5    6 1    
    10    5   35 1    
    11    5   76 1    
    12    6    7 1    
    13    6   77 1    
    14    6   78 1    
    15    7    8 1    
    16    8    9 1    
    17    8   79 1    
    18    8   80 1    
    19    9   10 ar   
    20    9   14 ar   
    21   10   11 ar   
    22   10   81 1    
    23   11   12 ar   
    24   11   71 1    
    25   12   13 ar   
    26   12   82 1    
    27   13   14 ar   
    28   13   15 1    
    29   14   83 1    
    30   15   16 1    
    31   15   84 1    
    32   15   85 1    
    33   16   17 1    
    34   17   18 1    
    35   17   86 1    
    36   17   87 1    
    37   18   19 1    
    38   18   37 1    
    39   18   88 1    
    40   19   20 am   BACKBONE|DICT|INTERRES
    41   19   89 1    
    42   20   21 2    
    43   20   22 1    
    44   22   23 1    
    45   22   24 1    
    46   22   90 1    
    47   23   91 1    
    48   23   92 1    
    49   23   93 1    
    50   24   25 am   BACKBONE|DICT|INTERRES
    51   24   94 1    
    52   25   26 2    
    53   25   27 1    
    54   27   28 1    
    55   27   29 1    
    56   27   95 1    
    57   28   96 1    
    58   28   97 1    
    59   28   98 1    
    60   29   30 am   BACKBONE|DICT|INTERRES
    61   29   99 1    
    62   30   31 2    
    63   30   32 1    
    64   32   33 1    
    65   32   34 1    
    66   32  100 1    
    67   33  101 1    
    68   33  102 1    
    69   33  103 1    
    70   34   35 am   BACKBONE|DICT|INTERRES
    71   34  104 1    
    72   35   36 2    
    73   37   38 2    
    74   37   39 am   BACKBONE|DICT|INTERRES
    75   39   40 1    
    76   39  105 1    
    77   40   41 1    
    78   40   42 1    
    79   40  106 1    
    80   41  107 1    
    81   41  108 1    
    82   41  109 1    
    83   42   43 2    
    84   42   44 am   BACKBONE|DICT|INTERRES
    85   44   45 1    
    86   44  110 1    
    87   45   46 1    
    88   45   47 1    
    89   45  111 1    
    90   46  112 1    
    91   46  113 1    
    92   46  114 1    
    93   47   48 2    
    94   47   49 am   BACKBONE|DICT|INTERRES
    95   49   50 1    
    96   49  115 1    
    97   50   51 1    
    98   50   52 1    
    99   50  116 1    
   100   51  117 1    
   101   51  118 1    
   102   51  119 1    
   103   52   53 2    
   104   52   54 am   BACKBONE|DICT|INTERRES
   105   54   55 1    
   106   54  120 1    
   107   55   56 1    
   108   55   57 1    
   109   55  121 1    
   110   56  122 1    
   111   56  123 1    
   112   56  124 1    
   113   57   58 2    
   114   57   59 am   BACKBONE|DICT|INTERRES
   115   59   60 1    
   116   59  125 1    
   117   60   61 1    
   118   60   62 1    
   119   60  126 1    
   120   61  127 1    
   121   61  128 1    
   122   61  129 1    
   123   62   63 2    
   124   62   64 am   BACKBONE|DICT|INTERRES
   125   64   65 1    
   126   64  130 1    
   127   65   66 1    
   128   65   69 1    
   129   65  131 1    
   130   66   67 am   BACKBONE|DICT|INTERRES
   131   66   68 2    
   132   67  132 1    
   133   67  133 1    
   134   69   70 1    
   135   69  134 1    
   136   69  135 1    
   137   70   71 1    
   138   71  136 1    
   139   71  137 1    
@<TRIPOS>SUBSTRUCTURE
     1 UNK         1 GROUP             0       ****    0 ROOT    
