@<TRIPOS>MOLECULE
3R137
137   139    1
SMALL
USER_CHARGES


@<TRIPOS>ATOM
      1 CA         33.0557   -3.4807   -2.6185 C.3       0 UNK        -0.2020 
      2 C          32.2105   -4.5896   -2.0099 C.2       0 UNK         0.4855 
      3 O          32.6837   -5.7183   -1.8747 O.2       0 UNK        -0.5197 
      4 N          30.9650   -4.2756   -1.6335 N.am      1 UNK        -0.4892 
      5 CA         29.9981   -5.2195   -1.0606 C.3       1 UNK         0.0835 
      6 C6         28.9118   -4.4954   -0.2219 C.3       12 UNK        -0.0855 
      7 S7         28.0440   -3.1673   -1.1363 S.3       12 UNK        -0.2931 
      8 C8         28.1168   -1.7833    0.0422 C.3       12 UNK         0.0378 
      9 C9         28.2155   -0.4575   -0.6921 C.ar      12 UNK        -0.0802 
     10 C10        29.4661    0.0071   -1.1036 C.ar      12 UNK        -0.0944 
     11 C11        29.5849    1.2244   -1.7765 C.ar      12 UNK        -0.0787 
     12 C12        28.4427    1.9931   -2.0182 C.ar      12 UNK        -0.0862 
     13 C13        27.1832    1.5352   -1.6182 C.ar      12 UNK        -0.0733 
     14 C14        27.0745    0.3066   -0.9565 C.ar      12 UNK        -0.0832 
     15 C15        25.9406    2.3720   -1.8853 C.3       12 UNK         0.0240 
     16 S16        25.0535    1.8159   -3.3750 S.3       12 UNK        -0.2522 
     17 C17        26.1064    2.4529   -4.7277 C.3       12 UNK        -0.0967 
     18 CA         27.0229    1.3587   -5.3510 C.3       5 UNK         0.0660 
     19 N          26.3313    0.1441   -5.7905 N.am      5 UNK        -0.4015 
     20 C          25.2474    0.0285   -6.5640 C.2       4 UNK         0.4946 
     21 O          24.5918    0.9810   -6.9864 O.2       4 UNK        -0.5353 
     22 CA         24.7922   -1.4019   -6.9212 C.3       4 UNK         0.0277 
     23 CB         25.5313   -1.9162   -8.1723 C.3       4 UNK        -0.1981 
     24 N          24.8742   -2.3817   -5.8234 N.am      4 UNK        -0.4209 
     25 C          25.9642   -2.8625   -5.2064 C.2       3 UNK         0.4942 
     26 O          27.1098   -2.4774   -5.4518 O.2       3 UNK        -0.5208 
     27 CA         25.7403   -3.8975   -4.0876 C.3       3 UNK         0.0250 
     28 CB         24.4195   -4.6928   -4.2074 C.3       3 UNK        -0.1990 
     29 N          26.8957   -4.7898   -3.9502 N.am      3 UNK        -0.4232 
     30 C          27.3435   -5.7023   -4.8280 C.2       2 UNK         0.4993 
     31 O          26.7541   -6.0033   -5.8674 O.2       2 UNK        -0.5286 
     32 CA         28.6762   -6.4038   -4.4946 C.3       2 UNK         0.0209 
     33 CB         29.6031   -6.4763   -5.7197 C.3       2 UNK        -0.1931 
     34 N          29.3857   -5.7363   -3.3977 N.am      2 UNK        -0.4546 
     35 C          29.3537   -6.1397   -2.1192 C.2       1 UNK         0.5154 
     36 O          28.8095   -7.1820   -1.7506 O.2       1 UNK        -0.5181 
     37 C          27.9724    1.8930   -6.4472 C.2       5 UNK         0.5014 
     38 O          28.1003    1.2949   -7.5234 O.2       5 UNK        -0.5248 
     39 N          28.7008    2.9677   -6.1108 N.am      6 UNK        -0.4434 
     40 CA         29.8340    3.5047   -6.8687 C.3       6 UNK         0.0363 
     41 CB         30.4762    4.6649   -6.0895 C.3       6 UNK        -0.1936 
     42 C          29.4862    3.9411   -8.2972 C.2       6 UNK         0.5081 
     43 O          30.1508    3.5161   -9.2426 O.2       6 UNK        -0.5248 
     44 N          28.4427    4.7704   -8.4222 N.am      7 UNK        -0.4718 
     45 CA         28.0094    5.3681   -9.6882 C.3       7 UNK         0.0273 
     46 CB         26.9794    6.4718   -9.3974 C.3       7 UNK        -0.1935 
     47 C          27.4410    4.3557  -10.6965 C.2       7 UNK         0.5018 
     48 O          27.4976    4.6147  -11.8994 O.2       7 UNK        -0.5186 
     49 N          26.8944    3.2406  -10.1953 N.am      8 UNK        -0.4240 
     50 CA         26.3031    2.1856  -11.0121 C.3       8 UNK         0.0235 
     51 CB         25.1916    1.4821  -10.2246 C.3       8 UNK        -0.2000 
     52 C          27.3531    1.1755  -11.4894 C.2       8 UNK         0.4941 
     53 O          27.4203    0.9170  -12.6922 O.2       8 UNK        -0.5273 
     54 N          28.1323    0.6032  -10.5581 N.am      9 UNK        -0.4262 
     55 CA         29.0538   -0.4966  -10.8600 C.3       9 UNK         0.0264 
     56 CB         28.2788   -1.8274  -10.9826 C.3       9 UNK        -0.1955 
     57 C          30.2202   -0.5814   -9.8652 C.2       9 UNK         0.5031 
     58 O          30.6101   -1.6880   -9.4857 O.2       9 UNK        -0.5390 
     59 N          30.7722    0.5744   -9.4625 N.am      10 UNK        -0.4204 
     60 CA         31.9928    0.7155   -8.6516 C.3       10 UNK         0.0237 
     61 CB         33.2311    0.3350   -9.4923 C.3       10 UNK        -0.1985 
     62 C          31.9495   -0.0266   -7.2976 C.2       10 UNK         0.4970 
     63 O          32.9874   -0.5014   -6.8334 O.2       10 UNK        -0.4914 
     64 N          30.7510   -0.1195   -6.7030 N.am      11 UNK        -0.4285 
     65 CA         30.4540   -0.8408   -5.4505 C.3       11 UNK         0.1007 
     66 C          30.5094   -2.3952   -5.5769 C.2       11 UNK         0.5703 
     67 N          30.6215   -2.9603   -6.7746 N.am      11 UNK        -0.7361 
     68 O          30.4282   -3.1055   -4.5758 O.2       11 UNK        -0.4986 
     69 C69        31.2630   -0.3149   -4.2260 C.3       12 UNK        -0.0947 
     70 S70        31.1712    1.5002   -4.0288 S.3       12 UNK        -0.2240 
     71 C71        30.9499    1.7083   -2.2366 C.3       12 UNK         0.0194 
     72 H72        34.0385   -3.4524   -2.1489 H         1 UNK         0.0906 
     73 H73        33.1901   -3.6557   -3.6857 H         1 UNK         0.0906 
     74 H74        32.5926   -2.5030   -2.4902 H         1 UNK         0.0906 
     75 H75        30.6054   -3.3470   -1.8086 H         1 UNK         0.3140 
     76 H76        30.5408   -5.8821   -0.3821 H         1 UNK         0.1085 
     77 H77        28.1691   -5.2040    0.1507 H         1 UNK         0.0836 
     78 H78        29.3811   -4.0828    0.6717 H         1 UNK         0.0836 
     79 H79        28.9778   -1.8838    0.7042 H         1 UNK         0.0731 
     80 H80        27.2335   -1.8073    0.6822 H         1 UNK         0.0731 
     81 H81        30.3480   -0.5864   -0.9050 H         1 UNK         0.1312 
     82 H82        28.5368    2.9424   -2.5267 H         1 UNK         0.1406 
     83 H83        26.1022   -0.0525   -0.6467 H         1 UNK         0.1631 
     84 H84        26.1941    3.4294   -1.9763 H         1 UNK         0.0717 
     85 H85        25.2655    2.2984   -1.0314 H         1 UNK         0.0717 
     86 H86        25.4557    2.8881   -5.4876 H         1 UNK         0.0934 
     87 H87        26.6928    3.2858   -4.3392 H         1 UNK         0.0934 
     88 H88        27.6848    1.0109   -4.5574 H         1 UNK         0.0739 
     89 H89        26.7942   -0.7326   -5.5560 H         1 UNK         0.3093 
     90 H90        23.7325   -1.3359   -7.1732 H         1 UNK         0.0818 
     91 H91        25.3318   -1.2831   -9.0361 H         1 UNK         0.0819 
     92 H92        26.6113   -1.9324   -8.0227 H         1 UNK         0.0819 
     93 H93        25.2150   -2.9257   -8.4346 H         1 UNK         0.0819 
     94 H94        23.9812   -2.7350   -5.5087 H         1 UNK         0.3041 
     95 H95        25.6954   -3.3265   -3.1592 H         1 UNK         0.0784 
     96 H96        23.5515   -4.0475   -4.0694 H         1 UNK         0.0793 
     97 H97        24.3200   -5.1786   -5.1788 H         1 UNK         0.0793 
     98 H98        24.3583   -5.4678   -3.4432 H         1 UNK         0.0793 
     99 H99        27.4899   -4.5888   -3.1570 H         1 UNK         0.3024 
    100 H100       28.4250   -7.4281   -4.2106 H         1 UNK         0.1171 
    101 H101       29.1492   -7.0605   -6.5212 H         1 UNK         0.0786 
    102 H102       29.8120   -5.4860   -6.1185 H         1 UNK         0.0786 
    103 H103       30.5537   -6.9494   -5.4728 H         1 UNK         0.0786 
    104 H104       29.8390   -4.8547   -3.6236 H         1 UNK         0.2977 
    105 H105       28.5489    3.3853   -5.2053 H         1 UNK         0.3127 
    106 H106       30.5756    2.7104   -6.9392 H         1 UNK         0.0770 
    107 H107       29.7755    5.4840   -5.9239 H         1 UNK         0.0814 
    108 H108       31.3306    5.0723   -6.6319 H         1 UNK         0.0814 
    109 H109       30.8432    4.3377   -5.1168 H         1 UNK         0.0814 
    110 H110       27.9476    5.0523   -7.5883 H         1 UNK         0.2983 
    111 H111       28.8825    5.8298  -10.1553 H         1 UNK         0.0947 
    112 H112       26.6558    6.9565  -10.3198 H         1 UNK         0.0806 
    113 H113       27.3982    7.2483   -8.7569 H         1 UNK         0.0806 
    114 H114       26.0886    6.0752   -8.9086 H         1 UNK         0.0806 
    115 H115       26.9208    3.0971   -9.1959 H         1 UNK         0.3000 
    116 H116       25.8434    2.6335  -11.8963 H         1 UNK         0.0850 
    117 H117       24.7186    0.7015  -10.8219 H         1 UNK         0.0810 
    118 H118       24.4114    2.1800   -9.9205 H         1 UNK         0.0810 
    119 H119       25.5899    1.0136   -9.3277 H         1 UNK         0.0810 
    120 H120       28.0388    0.8672   -9.5809 H         1 UNK         0.3040 
    121 H121       29.5241   -0.2975  -11.8254 H         1 UNK         0.0766 
    122 H122       27.8283   -2.1157  -10.0339 H         1 UNK         0.0812 
    123 H123       28.9396   -2.6396  -11.2882 H         1 UNK         0.0812 
    124 H124       27.4853   -1.7677  -11.7274 H         1 UNK         0.0812 
    125 H125       30.3633    1.4498   -9.7747 H         1 UNK         0.3205 
    126 H126       32.0859    1.7747   -8.4129 H         1 UNK         0.0754 
    127 H127       34.1550    0.5632   -8.9593 H         1 UNK         0.0769 
    128 H128       33.2581    0.8881  -10.4312 H         1 UNK         0.0769 
    129 H129       33.2459   -0.7295   -9.7293 H         1 UNK         0.0769 
    130 H130       29.9478    0.2736   -7.1783 H         1 UNK         0.2981 
    131 H131       29.4042   -0.6313   -5.2481 H         1 UNK         0.0541 
    132 H132       30.6563   -3.9623   -6.8419 H         1 UNK         0.3459 
    133 H133       30.6680   -2.3992   -7.6190 H         1 UNK         0.3459 
    134 H134       32.3142   -0.5940   -4.3056 H         1 UNK         0.0612 
    135 H135       30.8999   -0.7909   -3.3161 H         1 UNK         0.0612 
    136 H136       31.7501    1.1842   -1.7117 H         1 UNK         0.0624 
    137 H137       31.0614    2.7649   -1.9894 H         1 UNK         0.0624 
@<TRIPOS>BOND
     1    1    2 1    
     2    1   72 1    
     3    1   73 1    
     4    1   74 1    
     5    2    3 2    
     6    2    4 am   BACKBONE|DICT|INTERRES
     7    4    5 1    
     8    4   75 1    
     9    5    6 1    
    10    5   35 1    
    11    5   76 1    
    12    6    7 1    
    13    6   77 1    
    14    6   78 1    
    15    7    8 1    
    16    8    9 1    
    17    8   79 1    
    18    8   80 1    
    19    9   10 ar   
    20    9   14 ar   
    21   10   11 ar   
    22   10   81 1    
    23   11   12 ar   
    24   11   71 1    
    25   12   13 ar   
    26   12   82 1    
    27   13   14 ar   
    28   13   15 1    
    29   14   83 1    
    30   15   16 1    
    31   15   84 1    
    32   15   85 1    
    33   16   17 1    
    34   17   18 1    
    35   17   86 1    
    36   17   87 1    
    37   18   19 1    
    38   18   37 1    
    39   18   88 1    
    40   19   20 am   BACKBONE|DICT|INTERRES
    41   19   89 1    
    42   20   21 2    
    43   20   22 1    
    44   22   23 1    
    45   22   24 1    
    46   22   90 1    
    47   23   91 1    
    48   23   92 1    
    49   23   93 1    
    50   24   25 am   BACKBONE|DICT|INTERRES
    51   24   94 1    
    52   25   26 2    
    53   25   27 1    
    54   27   28 1    
    55   27   29 1    
    56   27   95 1    
    57   28   96 1    
    58   28   97 1    
    59   28   98 1    
    60   29   30 am   BACKBONE|DICT|INTERRES
    61   29   99 1    
    62   30   31 2    
    63   30   32 1    
    64   32   33 1    
    65   32   34 1    
    66   32  100 1    
    67   33  101 1    
    68   33  102 1    
    69   33  103 1    
    70   34   35 am   BACKBONE|DICT|INTERRES
    71   34  104 1    
    72   35   36 2    
    73   37   38 2    
    74   37   39 am   BACKBONE|DICT|INTERRES
    75   39   40 1    
    76   39  105 1    
    77   40   41 1    
    78   40   42 1    
    79   40  106 1    
    80   41  107 1    
    81   41  108 1    
    82   41  109 1    
    83   42   43 2    
    84   42   44 am   BACKBONE|DICT|INTERRES
    85   44   45 1    
    86   44  110 1    
    87   45   46 1    
    88   45   47 1    
    89   45  111 1    
    90   46  112 1    
    91   46  113 1    
    92   46  114 1    
    93   47   48 2    
    94   47   49 am   BACKBONE|DICT|INTERRES
    95   49   50 1    
    96   49  115 1    
    97   50   51 1    
    98   50   52 1    
    99   50  116 1    
   100   51  117 1    
   101   51  118 1    
   102   51  119 1    
   103   52   53 2    
   104   52   54 am   BACKBONE|DICT|INTERRES
   105   54   55 1    
   106   54  120 1    
   107   55   56 1    
   108   55   57 1    
   109   55  121 1    
   110   56  122 1    
   111   56  123 1    
   112   56  124 1    
   113   57   58 2    
   114   57   59 am   BACKBONE|DICT|INTERRES
   115   59   60 1    
   116   59  125 1    
   117   60   61 1    
   118   60   62 1    
   119   60  126 1    
   120   61  127 1    
   121   61  128 1    
   122   61  129 1    
   123   62   63 2    
   124   62   64 am   BACKBONE|DICT|INTERRES
   125   64   65 1    
   126   64  130 1    
   127   65   66 1    
   128   65   69 1    
   129   65  131 1    
   130   66   67 am   BACKBONE|DICT|INTERRES
   131   66   68 2    
   132   67  132 1    
   133   67  133 1    
   134   69   70 1    
   135   69  134 1    
   136   69  135 1    
   137   70   71 1    
   138   71  136 1    
   139   71  137 1    
@<TRIPOS>SUBSTRUCTURE
     1 UNK         1 GROUP             0       ****    0 ROOT    
