@<TRIPOS>MOLECULE
3R137
137   139    1
SMALL
USER_CHARGES


@<TRIPOS>ATOM
      1 CA         24.5367   -5.2281    1.4220 C.3       0 UNK        -0.2020 
      2 C          26.0581   -5.3238    1.3388 C.2       0 UNK         0.4855 
      3 O          26.5968   -6.4249    1.4306 O.2       0 UNK        -0.5197 
      4 N          26.7978   -4.2171    1.1753 N.am      1 UNK        -0.4892 
      5 CA         26.3297   -2.8357    0.9881 C.3       1 UNK         0.0835 
      6 C6         27.4722   -1.8049    1.1936 C.3       12 UNK        -0.0855 
      7 S7         29.0239   -2.2100    0.3144 S.3       12 UNK        -0.2931 
      8 C8         28.9289   -1.0894   -1.1131 C.3       12 UNK         0.0378 
      9 C9         30.0491   -1.3688   -2.1029 C.ar      12 UNK        -0.0802 
     10 C10        31.1130   -0.4733   -2.2495 C.ar      12 UNK        -0.0944 
     11 C11        32.1473   -0.7414   -3.1529 C.ar      12 UNK        -0.0787 
     12 C12        32.1130   -1.9195   -3.9048 C.ar      12 UNK        -0.0862 
     13 C13        31.0381   -2.8047   -3.7921 C.ar      12 UNK        -0.0733 
     14 C14        30.0126   -2.5264   -2.8841 C.ar      12 UNK        -0.0832 
     15 C15        30.9932   -4.0643   -4.6452 C.3       12 UNK         0.0240 
     16 S16        30.4681   -3.7161   -6.3553 S.3       12 UNK        -0.2522 
     17 C17        28.7117   -3.2757   -6.1232 C.3       12 UNK        -0.0967 
     18 CA         28.2453   -2.1193   -7.0381 C.3       5 UNK         0.0660 
     19 N          26.7926   -1.9713   -7.0276 N.am      5 UNK        -0.4015 
     20 C          26.1052   -1.3052   -7.9644 C.2       4 UNK         0.4946 
     21 O          26.6179   -0.8321   -8.9781 O.2       4 UNK        -0.5353 
     22 CA         24.6023   -1.0970   -7.7110 C.3       4 UNK         0.0277 
     23 CB         23.7924   -2.2771   -8.2698 C.3       4 UNK        -0.1981 
     24 N          24.2856   -0.9064   -6.2920 N.am      4 UNK        -0.4209 
     25 C          24.6931    0.1447   -5.5653 C.2       3 UNK         0.4942 
     26 O          25.3275    1.0894   -6.0314 O.2       3 UNK        -0.5208 
     27 CA         24.3855    0.1193   -4.0593 C.3       3 UNK         0.0250 
     28 CB         23.0091    0.7430   -3.7809 C.3       3 UNK        -0.1990 
     29 N          24.4514   -1.2181   -3.4604 N.am      3 UNK        -0.4232 
     30 C          25.5408   -1.9985   -3.4351 C.2       2 UNK         0.4993 
     31 O          26.6169   -1.6904   -3.9533 O.2       2 UNK        -0.5286 
     32 CA         25.3971   -3.3596   -2.7309 C.3       2 UNK         0.0209 
     33 CB         26.0257   -4.4881   -3.5674 C.3       2 UNK        -0.1931 
     34 N          25.9972   -3.3657   -1.3946 N.am      2 UNK        -0.4546 
     35 C          25.5970   -2.6201   -0.3538 C.2       1 UNK         0.5154 
     36 O          24.6582   -1.8252   -0.4029 O.2       1 UNK        -0.5181 
     37 C          28.9109   -0.7682   -6.7089 C.2       5 UNK         0.5014 
     38 O          29.7630   -0.3152   -7.4722 O.2       5 UNK        -0.5248 
     39 N          28.4742   -0.1303   -5.6135 N.am      6 UNK        -0.4434 
     40 CA         29.0002    1.1472   -5.1279 C.3       6 UNK         0.0363 
     41 CB         28.2999    1.5256   -3.8135 C.3       6 UNK        -0.1936 
     42 C          28.8788    2.3048   -6.1341 C.2       6 UNK         0.5081 
     43 O          29.8647    3.0031   -6.3689 O.2       6 UNK        -0.5248 
     44 N          27.6724    2.5097   -6.6788 N.am      7 UNK        -0.4718 
     45 CA         27.3437    3.6570   -7.5225 C.3       7 UNK         0.0273 
     46 CB         25.9254    4.1556   -7.1918 C.3       7 UNK        -0.1935 
     47 C          27.4849    3.3393   -9.0150 C.2       7 UNK         0.5018 
     48 O          28.2769    3.9947   -9.6921 O.2       7 UNK        -0.5186 
     49 N          26.6916    2.3791   -9.5137 N.am      8 UNK        -0.4240 
     50 CA         26.5409    2.1198  -10.9501 C.3       8 UNK         0.0235 
     51 CB         25.2585    1.3163  -11.2259 C.3       8 UNK        -0.2000 
     52 C          27.7751    1.4573  -11.5794 C.2       8 UNK         0.4941 
     53 O          28.2363    1.9221  -12.6229 O.2       8 UNK        -0.5273 
     54 N          28.3043    0.4080  -10.9343 N.am      9 UNK        -0.4262 
     55 CA         29.5426   -0.2579  -11.3584 C.3       9 UNK         0.0264 
     56 CB         29.5994   -1.6790  -10.7775 C.3       9 UNK        -0.1955 
     57 C          30.8099    0.5305  -10.9752 C.2       9 UNK         0.5031 
     58 O          31.8539    0.3074  -11.5894 O.2       9 UNK        -0.5390 
     59 N          30.6913    1.4285   -9.9844 N.am      10 UNK        -0.4204 
     60 CA         31.7463    2.2586   -9.3917 C.3       10 UNK         0.0237 
     61 CB         32.3127    3.2612  -10.4205 C.3       10 UNK        -0.1985 
     62 C          32.8302    1.4141   -8.6934 C.2       10 UNK         0.4970 
     63 O          34.0238    1.6345   -8.9109 O.2       10 UNK        -0.4914 
     64 N          32.3789    0.4646   -7.8654 N.am      11 UNK        -0.4285 
     65 CA         33.1781   -0.5134   -7.1167 C.3       11 UNK         0.1007 
     66 C          33.8979   -1.5396   -8.0449 C.2       11 UNK         0.5703 
     67 N          34.9764   -2.1716   -7.5983 N.am      11 UNK        -0.7361 
     68 O          33.4547   -1.8202   -9.1568 O.2       11 UNK        -0.4986 
     69 C69        34.0971    0.1386   -6.0376 C.3       12 UNK        -0.0947 
     70 S70        33.1970    1.1963   -4.8482 S.3       12 UNK        -0.2240 
     71 C71        33.3057    0.2349   -3.3026 C.3       12 UNK         0.0194 
     72 H72        24.2180   -4.4380    2.1004 H         1 UNK         0.0906 
     73 H73        24.1067   -5.0453    0.4378 H         1 UNK         0.0906 
     74 H74        24.1193   -6.1629    1.7958 H         1 UNK         0.0906 
     75 H75        27.8035   -4.3162    1.1350 H         1 UNK         0.3140 
     76 H76        25.5916   -2.6324    1.7664 H         1 UNK         0.1085 
     77 H77        27.1460   -0.7946    0.9367 H         1 UNK         0.0836 
     78 H78        27.7161   -1.7608    2.2564 H         1 UNK         0.0836 
     79 H79        28.9689   -0.0569   -0.7623 H         1 UNK         0.0731 
     80 H80        27.9686   -1.2112   -1.6141 H         1 UNK         0.0731 
     81 H81        31.1383    0.4309   -1.6568 H         1 UNK         0.1312 
     82 H82        32.9172   -2.1447   -4.5899 H         1 UNK         0.1406 
     83 H83        29.1827   -3.2110   -2.7764 H         1 UNK         0.1631 
     84 H84        30.3259   -4.8076   -4.2059 H         1 UNK         0.0717 
     85 H85        31.9837   -4.5210   -4.6684 H         1 UNK         0.0717 
     86 H86        28.1258   -4.1718   -6.3334 H         1 UNK         0.0934 
     87 H87        28.5178   -3.0345   -5.0806 H         1 UNK         0.0934 
     88 H88        28.5275   -2.3889   -8.0561 H         1 UNK         0.0739 
     89 H89        26.3161   -2.2611   -6.1859 H         1 UNK         0.3093 
     90 H90        24.3022   -0.1933   -8.2460 H         1 UNK         0.0818 
     91 H91        22.7205   -2.1043   -8.1725 H         1 UNK         0.0819 
     92 H92        23.9997   -2.4224   -9.3311 H         1 UNK         0.0819 
     93 H93        24.0307   -3.2118   -7.7605 H         1 UNK         0.0819 
     94 H94        23.7529   -1.6318   -5.8345 H         1 UNK         0.3041 
     95 H95        25.1400    0.7320   -3.5629 H         1 UNK         0.0784 
     96 H96        22.9457    1.7493   -4.1979 H         1 UNK         0.0793 
     97 H97        22.2012    0.1563   -4.2201 H         1 UNK         0.0793 
     98 H98        22.8209    0.8265   -2.7102 H         1 UNK         0.0793 
     99 H99        23.6251   -1.5296   -2.9693 H         1 UNK         0.3024 
    100 H100       24.3332   -3.5812   -2.6213 H         1 UNK         0.1171 
    101 H101       25.6274   -4.4945   -4.5829 H         1 UNK         0.0786 
    102 H102       27.1082   -4.3851   -3.6410 H         1 UNK         0.0786 
    103 H103       25.8144   -5.4655   -3.1331 H         1 UNK         0.0786 
    104 H104       26.7800   -3.9870   -1.2501 H         1 UNK         0.2977 
    105 H105       27.7736   -0.5868   -5.0345 H         1 UNK         0.3127 
    106 H106       30.0611    0.9945   -4.9184 H         1 UNK         0.0770 
    107 H107       27.2475    1.7626   -3.9686 H         1 UNK         0.0814 
    108 H108       28.7686    2.4009   -3.3622 H         1 UNK         0.0814 
    109 H109       28.3516    0.7180   -3.0886 H         1 UNK         0.0814 
    110 H110       26.9019    1.8908   -6.4276 H         1 UNK         0.2983 
    111 H111       28.0286    4.4789   -7.3001 H         1 UNK         0.0947 
    112 H112       25.6685    5.0273   -7.7952 H         1 UNK         0.0806 
    113 H113       25.8471    4.4522   -6.1458 H         1 UNK         0.0806 
    114 H114       25.1652    3.3964   -7.3774 H         1 UNK         0.0806 
    115 H115       26.1095    1.8466   -8.8830 H         1 UNK         0.3000 
    116 H116       26.4184    3.0887  -11.4402 H         1 UNK         0.0850 
    117 H117       25.2916    0.3175  -10.7941 H         1 UNK         0.0810 
    118 H118       25.1040    1.1952  -12.2989 H         1 UNK         0.0810 
    119 H119       24.3790    1.8240  -10.8297 H         1 UNK         0.0810 
    120 H120       27.8186    0.0333  -10.1197 H         1 UNK         0.3040 
    121 H121       29.5252   -0.3468  -12.4469 H         1 UNK         0.0766 
    122 H122       29.8331   -1.6662   -9.7148 H         1 UNK         0.0812 
    123 H123       30.3835   -2.2603  -11.2640 H         1 UNK         0.0812 
    124 H124       28.6598   -2.2138  -10.9168 H         1 UNK         0.0812 
    125 H125       29.7859    1.4977   -9.5413 H         1 UNK         0.3205 
    126 H126       31.2651    2.8427   -8.6069 H         1 UNK         0.0754 
    127 H127       33.0038    3.9577   -9.9443 H         1 UNK         0.0769 
    128 H128       31.5168    3.8529  -10.8732 H         1 UNK         0.0769 
    129 H129       32.8573    2.7606  -11.2215 H         1 UNK         0.0769 
    130 H130       31.3724    0.3222   -7.7859 H         1 UNK         0.2981 
    131 H131       32.4330   -1.1106   -6.5934 H         1 UNK         0.0541 
    132 H132       35.3604   -1.9756   -6.6882 H         1 UNK         0.3459 
    133 H133       35.4234   -2.8501   -8.1947 H         1 UNK         0.3459 
    134 H134       34.8664    0.7483   -6.5133 H         1 UNK         0.0612 
    135 H135       34.6339   -0.6257   -5.4763 H         1 UNK         0.0612 
    136 H136       33.3100    0.9382   -2.4685 H         1 UNK         0.0624 
    137 H137       34.2561   -0.2969   -3.2460 H         1 UNK         0.0624 
@<TRIPOS>BOND
     1    1    2 1    
     2    1   72 1    
     3    1   73 1    
     4    1   74 1    
     5    2    3 2    
     6    2    4 am   BACKBONE|DICT|INTERRES
     7    4    5 1    
     8    4   75 1    
     9    5    6 1    
    10    5   35 1    
    11    5   76 1    
    12    6    7 1    
    13    6   77 1    
    14    6   78 1    
    15    7    8 1    
    16    8    9 1    
    17    8   79 1    
    18    8   80 1    
    19    9   10 ar   
    20    9   14 ar   
    21   10   11 ar   
    22   10   81 1    
    23   11   12 ar   
    24   11   71 1    
    25   12   13 ar   
    26   12   82 1    
    27   13   14 ar   
    28   13   15 1    
    29   14   83 1    
    30   15   16 1    
    31   15   84 1    
    32   15   85 1    
    33   16   17 1    
    34   17   18 1    
    35   17   86 1    
    36   17   87 1    
    37   18   19 1    
    38   18   37 1    
    39   18   88 1    
    40   19   20 am   BACKBONE|DICT|INTERRES
    41   19   89 1    
    42   20   21 2    
    43   20   22 1    
    44   22   23 1    
    45   22   24 1    
    46   22   90 1    
    47   23   91 1    
    48   23   92 1    
    49   23   93 1    
    50   24   25 am   BACKBONE|DICT|INTERRES
    51   24   94 1    
    52   25   26 2    
    53   25   27 1    
    54   27   28 1    
    55   27   29 1    
    56   27   95 1    
    57   28   96 1    
    58   28   97 1    
    59   28   98 1    
    60   29   30 am   BACKBONE|DICT|INTERRES
    61   29   99 1    
    62   30   31 2    
    63   30   32 1    
    64   32   33 1    
    65   32   34 1    
    66   32  100 1    
    67   33  101 1    
    68   33  102 1    
    69   33  103 1    
    70   34   35 am   BACKBONE|DICT|INTERRES
    71   34  104 1    
    72   35   36 2    
    73   37   38 2    
    74   37   39 am   BACKBONE|DICT|INTERRES
    75   39   40 1    
    76   39  105 1    
    77   40   41 1    
    78   40   42 1    
    79   40  106 1    
    80   41  107 1    
    81   41  108 1    
    82   41  109 1    
    83   42   43 2    
    84   42   44 am   BACKBONE|DICT|INTERRES
    85   44   45 1    
    86   44  110 1    
    87   45   46 1    
    88   45   47 1    
    89   45  111 1    
    90   46  112 1    
    91   46  113 1    
    92   46  114 1    
    93   47   48 2    
    94   47   49 am   BACKBONE|DICT|INTERRES
    95   49   50 1    
    96   49  115 1    
    97   50   51 1    
    98   50   52 1    
    99   50  116 1    
   100   51  117 1    
   101   51  118 1    
   102   51  119 1    
   103   52   53 2    
   104   52   54 am   BACKBONE|DICT|INTERRES
   105   54   55 1    
   106   54  120 1    
   107   55   56 1    
   108   55   57 1    
   109   55  121 1    
   110   56  122 1    
   111   56  123 1    
   112   56  124 1    
   113   57   58 2    
   114   57   59 am   BACKBONE|DICT|INTERRES
   115   59   60 1    
   116   59  125 1    
   117   60   61 1    
   118   60   62 1    
   119   60  126 1    
   120   61  127 1    
   121   61  128 1    
   122   61  129 1    
   123   62   63 2    
   124   62   64 am   BACKBONE|DICT|INTERRES
   125   64   65 1    
   126   64  130 1    
   127   65   66 1    
   128   65   69 1    
   129   65  131 1    
   130   66   67 am   BACKBONE|DICT|INTERRES
   131   66   68 2    
   132   67  132 1    
   133   67  133 1    
   134   69   70 1    
   135   69  134 1    
   136   69  135 1    
   137   70   71 1    
   138   71  136 1    
   139   71  137 1    
@<TRIPOS>SUBSTRUCTURE
     1 UNK         1 GROUP             0       ****    0 ROOT    
