@<TRIPOS>MOLECULE
3R137
137   139    1
SMALL
USER_CHARGES


@<TRIPOS>ATOM
      1 CA         27.2255   -8.3897   -1.3092 C.3       0 UNK        -0.2020 
      2 C          28.2810   -8.4829   -2.4083 C.2       0 UNK         0.4855 
      3 O          28.4216   -9.5438   -3.0132 O.2       0 UNK        -0.5197 
      4 N          29.0574   -7.4290   -2.7024 N.am      1 UNK        -0.4892 
      5 CA         28.9821   -6.0703   -2.1514 C.3       1 UNK         0.0835 
      6 C6         30.2663   -5.2750   -2.4972 C.3       12 UNK        -0.0855 
      7 S7         30.3817   -3.6534   -1.6701 S.3       12 UNK        -0.2931 
      8 C8         30.1396   -2.5676   -3.1059 C.3       12 UNK         0.0378 
      9 C9         30.1524   -1.1006   -2.7186 C.ar      12 UNK        -0.0802 
     10 C10        31.2783   -0.3133   -2.9746 C.ar      12 UNK        -0.0944 
     11 C11        31.2655    1.0546   -2.6884 C.ar      12 UNK        -0.0787 
     12 C12        30.1242    1.6285   -2.1232 C.ar      12 UNK        -0.0862 
     13 C13        28.9947    0.8485   -1.8585 C.ar      12 UNK        -0.0733 
     14 C14        29.0161   -0.5180   -2.1517 C.ar      12 UNK        -0.0832 
     15 C15        27.7385    1.4935   -1.2933 C.3       12 UNK         0.0240 
     16 S16        26.3568    1.4579   -2.4801 S.3       12 UNK        -0.2522 
     17 C17        27.0871    2.2212   -3.9726 C.3       12 UNK        -0.0967 
     18 CA         27.4064    1.1683   -5.0796 C.3       5 UNK         0.0660 
     19 N          26.2266    0.3878   -5.4652 N.am      5 UNK        -0.4015 
     20 C          25.1482    0.8598   -6.1118 C.2       4 UNK         0.4946 
     21 O          25.0736    1.9986   -6.5754 O.2       4 UNK        -0.5353 
     22 CA         23.9288   -0.0739   -6.2459 C.3       4 UNK         0.0277 
     23 CB         23.8763   -0.7098   -7.6414 C.3       4 UNK        -0.1981 
     24 N          23.9048   -1.1319   -5.2348 N.am      4 UNK        -0.4209 
     25 C          23.6585   -0.9365   -3.9321 C.2       3 UNK         0.4942 
     26 O          23.2393    0.1268   -3.4740 O.2       3 UNK        -0.5208 
     27 CA         23.9274   -2.1118   -2.9706 C.3       3 UNK         0.0250 
     28 CB         22.6202   -2.5837   -2.3106 C.3       3 UNK        -0.1990 
     29 N          24.5981   -3.2721   -3.5723 N.am      3 UNK        -0.4232 
     30 C          25.8526   -3.3022   -4.0445 C.2       2 UNK         0.4993 
     31 O          26.5889   -2.3154   -4.1130 O.2       2 UNK        -0.5286 
     32 CA         26.3357   -4.6585   -4.5922 C.3       2 UNK         0.0209 
     33 CB         26.6029   -4.5585   -6.1038 C.3       2 UNK        -0.1931 
     34 N          27.5343   -5.1792   -3.9251 N.am      2 UNK        -0.4546 
     35 C          27.6808   -5.3727   -2.6048 C.2       1 UNK         0.5154 
     36 O          26.8191   -5.1024   -1.7672 O.2       1 UNK        -0.5181 
     37 C          28.1314    1.7447   -6.3196 C.2       5 UNK         0.5014 
     38 O          28.3252    1.0269   -7.3073 O.2       5 UNK        -0.5248 
     39 N          28.5212    3.0257   -6.2631 N.am      6 UNK        -0.4434 
     40 CA         29.2344    3.7415   -7.3220 C.3       6 UNK         0.0363 
     41 CB         29.6642    5.1207   -6.7993 C.3       6 UNK        -0.1936 
     42 C          28.4454    3.8831   -8.6361 C.2       6 UNK         0.5081 
     43 O          29.0724    4.0123   -9.6865 O.2       6 UNK        -0.5248 
     44 N          27.1058    3.8103   -8.5848 N.am      7 UNK        -0.4718 
     45 CA         26.2364    3.8505   -9.7682 C.3       7 UNK         0.0273 
     46 CB         24.7744    4.0456   -9.3371 C.3       7 UNK        -0.1935 
     47 C          26.3764    2.6083  -10.6680 C.2       7 UNK         0.5018 
     48 O          26.1581    2.7153  -11.8750 O.2       7 UNK        -0.5186 
     49 N          26.7685    1.4714  -10.0763 N.am      8 UNK        -0.4240 
     50 CA         27.1297    0.2398  -10.7846 C.3       8 UNK         0.0235 
     51 CB         26.5167   -0.9568  -10.0385 C.3       8 UNK        -0.2000 
     52 C          28.6549    0.0717  -10.9149 C.2       8 UNK         0.4941 
     53 O          29.0972   -0.9613  -11.4190 O.2       8 UNK        -0.5273 
     54 N          29.4298    1.0590  -10.4357 N.am      9 UNK        -0.4262 
     55 CA         30.8902    1.0607  -10.2959 C.3       9 UNK         0.0264 
     56 CB         31.5779    1.0773  -11.6775 C.3       9 UNK        -0.1955 
     57 C          31.4095   -0.0662   -9.3795 C.2       9 UNK         0.5031 
     58 O          32.5174   -0.5651   -9.5913 O.2       9 UNK        -0.5390 
     59 N          30.6203   -0.4368   -8.3568 N.am      10 UNK        -0.4204 
     60 CA         30.9204   -1.5327   -7.4266 C.3       10 UNK         0.0237 
     61 CB         29.6735   -1.8456   -6.5845 C.3       10 UNK        -0.1985 
     62 C          32.1414   -1.2688   -6.5259 C.2       10 UNK         0.4970 
     63 O          32.6877   -2.2173   -5.9623 O.2       10 UNK        -0.4914 
     64 N          32.5578   -0.0002   -6.4252 N.am      11 UNK        -0.4285 
     65 CA         33.8063    0.4356   -5.7870 C.3       11 UNK         0.1007 
     66 C          35.0968    0.0157   -6.5521 C.2       11 UNK         0.5703 
     67 N          35.0240   -0.4112   -7.8091 N.am      11 UNK        -0.7361 
     68 O          36.1870    0.0762   -5.9888 O.2       11 UNK        -0.4986 
     69 C69        33.8148    1.9640   -5.5076 C.3       12 UNK        -0.0947 
     70 S70        32.3048    2.5995   -4.7035 S.3       12 UNK        -0.2240 
     71 C71        32.4656    1.9249   -3.0215 C.3       12 UNK         0.0194 
     72 H72        26.9356   -9.3871   -0.9792 H         1 UNK         0.0906 
     73 H73        27.5912   -7.8547   -0.4343 H         1 UNK         0.0906 
     74 H74        26.3304   -7.8905   -1.6788 H         1 UNK         0.0906 
     75 H75        29.7498   -7.5556   -3.4272 H         1 UNK         0.3140 
     76 H76        28.9451   -6.1484   -1.0631 H         1 UNK         0.1085 
     77 H77        31.1393   -5.8485   -2.1804 H         1 UNK         0.0836 
     78 H78        30.3764   -5.1571   -3.5767 H         1 UNK         0.0836 
     79 H79        30.9200   -2.7705   -3.8408 H         1 UNK         0.0731 
     80 H80        29.1906   -2.8038   -3.5881 H         1 UNK         0.0731 
     81 H81        32.1541   -0.7624   -3.4205 H         1 UNK         0.1312 
     82 H82        30.1091    2.6893   -1.9130 H         1 UNK         0.1406 
     83 H83        28.1359   -1.1219   -1.9723 H         1 UNK         0.1631 
     84 H84        27.9275    2.5277   -1.0015 H         1 UNK         0.0717 
     85 H85        27.4401    0.9674   -0.3855 H         1 UNK         0.0717 
     86 H86        26.3813    2.9676   -4.3420 H         1 UNK         0.0934 
     87 H87        27.9819    2.7687   -3.6739 H         1 UNK         0.0934 
     88 H88        28.1052    0.4490   -4.6539 H         1 UNK         0.0739 
     89 H89        26.2151   -0.5646   -5.1150 H         1 UNK         0.3093 
     90 H90        23.0362    0.5425   -6.1190 H         1 UNK         0.0818 
     91 H91        22.9478   -1.2612   -7.7903 H         1 UNK         0.0819 
     92 H92        23.9261    0.0539   -8.4191 H         1 UNK         0.0819 
     93 H93        24.7045   -1.4009   -7.7972 H         1 UNK         0.0819 
     94 H94        24.2190   -2.0463   -5.5225 H         1 UNK         0.3041 
     95 H95        24.5849   -1.7263   -2.1881 H         1 UNK         0.0784 
     96 H96        22.1139   -1.7584   -1.8077 H         1 UNK         0.0793 
     97 H97        21.9241   -2.9945   -3.0430 H         1 UNK         0.0793 
     98 H98        22.8088   -3.3489   -1.5573 H         1 UNK         0.0793 
     99 H99        24.0659   -4.1307   -3.5724 H         1 UNK         0.3024 
    100 H100       25.5456   -5.3970   -4.4395 H         1 UNK         0.1171 
    101 H101       25.7228   -4.1950   -6.6360 H         1 UNK         0.0786 
    102 H102       26.8565   -5.5297   -6.5291 H         1 UNK         0.0786 
    103 H103       27.4212   -3.8722   -6.3231 H         1 UNK         0.0786 
    104 H104       28.2906   -5.4589   -4.5313 H         1 UNK         0.2977 
    105 H105       28.3189    3.5551   -5.4283 H         1 UNK         0.3127 
    106 H106       30.1371    3.1703   -7.5491 H         1 UNK         0.0770 
    107 H107       28.8059    5.7348   -6.5238 H         1 UNK         0.0814 
    108 H108       30.2258    5.6677   -7.5582 H         1 UNK         0.0814 
    109 H109       30.3105    5.0306   -5.9257 H         1 UNK         0.0814 
    110 H110       26.6553    3.6567   -7.6917 H         1 UNK         0.2983 
    111 H111       26.5299    4.7169  -10.3655 H         1 UNK         0.0947 
    112 H112       24.1292    4.1787  -10.2066 H         1 UNK         0.0806 
    113 H113       24.6570    4.9288   -8.7092 H         1 UNK         0.0806 
    114 H114       24.3956    3.1858   -8.7848 H         1 UNK         0.0806 
    115 H115       26.9376    1.4808   -9.0770 H         1 UNK         0.3000 
    116 H116       26.7245    0.2506  -11.7985 H         1 UNK         0.0850 
    117 H117       26.7978   -1.9031  -10.5026 H         1 UNK         0.0810 
    118 H118       25.4291   -0.9084  -10.0593 H         1 UNK         0.0810 
    119 H119       26.8426   -0.9932   -8.9979 H         1 UNK         0.0810 
    120 H120       28.9698    1.8938  -10.0938 H         1 UNK         0.3040 
    121 H121       31.1442    1.9952   -9.7938 H         1 UNK         0.0766 
    122 H122       31.1996    1.8890  -12.2987 H         1 UNK         0.0812 
    123 H123       31.4267    0.1419  -12.2170 H         1 UNK         0.0812 
    124 H124       32.6542    1.2227  -11.5771 H         1 UNK         0.0812 
    125 H125       29.7414    0.0534   -8.2047 H         1 UNK         0.3205 
    126 H126       31.1489   -2.4135   -8.0302 H         1 UNK         0.0754 
    127 H127       29.7963   -2.7874   -6.0499 H         1 UNK         0.0769 
    128 H128       28.7824   -1.9413   -7.2052 H         1 UNK         0.0769 
    129 H129       29.4837   -1.0705   -5.8425 H         1 UNK         0.0769 
    130 H130       32.0345    0.7162   -6.9029 H         1 UNK         0.2981 
    131 H131       33.8635   -0.0730   -4.8243 H         1 UNK         0.0541 
    132 H132       34.1366   -0.4661   -8.2963 H         1 UNK         0.3459 
    133 H133       35.8706   -0.6804   -8.2841 H         1 UNK         0.3459 
    134 H134       33.9328    2.5141   -6.4430 H         1 UNK         0.0612 
    135 H135       34.6724    2.2352   -4.8890 H         1 UNK         0.0612 
    136 H136       32.5406    2.7521   -2.3142 H         1 UNK         0.0624 
    137 H137       33.3878    1.3519   -2.9173 H         1 UNK         0.0624 
@<TRIPOS>BOND
     1    1    2 1    
     2    1   72 1    
     3    1   73 1    
     4    1   74 1    
     5    2    3 2    
     6    2    4 am   BACKBONE|DICT|INTERRES
     7    4    5 1    
     8    4   75 1    
     9    5    6 1    
    10    5   35 1    
    11    5   76 1    
    12    6    7 1    
    13    6   77 1    
    14    6   78 1    
    15    7    8 1    
    16    8    9 1    
    17    8   79 1    
    18    8   80 1    
    19    9   10 ar   
    20    9   14 ar   
    21   10   11 ar   
    22   10   81 1    
    23   11   12 ar   
    24   11   71 1    
    25   12   13 ar   
    26   12   82 1    
    27   13   14 ar   
    28   13   15 1    
    29   14   83 1    
    30   15   16 1    
    31   15   84 1    
    32   15   85 1    
    33   16   17 1    
    34   17   18 1    
    35   17   86 1    
    36   17   87 1    
    37   18   19 1    
    38   18   37 1    
    39   18   88 1    
    40   19   20 am   BACKBONE|DICT|INTERRES
    41   19   89 1    
    42   20   21 2    
    43   20   22 1    
    44   22   23 1    
    45   22   24 1    
    46   22   90 1    
    47   23   91 1    
    48   23   92 1    
    49   23   93 1    
    50   24   25 am   BACKBONE|DICT|INTERRES
    51   24   94 1    
    52   25   26 2    
    53   25   27 1    
    54   27   28 1    
    55   27   29 1    
    56   27   95 1    
    57   28   96 1    
    58   28   97 1    
    59   28   98 1    
    60   29   30 am   BACKBONE|DICT|INTERRES
    61   29   99 1    
    62   30   31 2    
    63   30   32 1    
    64   32   33 1    
    65   32   34 1    
    66   32  100 1    
    67   33  101 1    
    68   33  102 1    
    69   33  103 1    
    70   34   35 am   BACKBONE|DICT|INTERRES
    71   34  104 1    
    72   35   36 2    
    73   37   38 2    
    74   37   39 am   BACKBONE|DICT|INTERRES
    75   39   40 1    
    76   39  105 1    
    77   40   41 1    
    78   40   42 1    
    79   40  106 1    
    80   41  107 1    
    81   41  108 1    
    82   41  109 1    
    83   42   43 2    
    84   42   44 am   BACKBONE|DICT|INTERRES
    85   44   45 1    
    86   44  110 1    
    87   45   46 1    
    88   45   47 1    
    89   45  111 1    
    90   46  112 1    
    91   46  113 1    
    92   46  114 1    
    93   47   48 2    
    94   47   49 am   BACKBONE|DICT|INTERRES
    95   49   50 1    
    96   49  115 1    
    97   50   51 1    
    98   50   52 1    
    99   50  116 1    
   100   51  117 1    
   101   51  118 1    
   102   51  119 1    
   103   52   53 2    
   104   52   54 am   BACKBONE|DICT|INTERRES
   105   54   55 1    
   106   54  120 1    
   107   55   56 1    
   108   55   57 1    
   109   55  121 1    
   110   56  122 1    
   111   56  123 1    
   112   56  124 1    
   113   57   58 2    
   114   57   59 am   BACKBONE|DICT|INTERRES
   115   59   60 1    
   116   59  125 1    
   117   60   61 1    
   118   60   62 1    
   119   60  126 1    
   120   61  127 1    
   121   61  128 1    
   122   61  129 1    
   123   62   63 2    
   124   62   64 am   BACKBONE|DICT|INTERRES
   125   64   65 1    
   126   64  130 1    
   127   65   66 1    
   128   65   69 1    
   129   65  131 1    
   130   66   67 am   BACKBONE|DICT|INTERRES
   131   66   68 2    
   132   67  132 1    
   133   67  133 1    
   134   69   70 1    
   135   69  134 1    
   136   69  135 1    
   137   70   71 1    
   138   71  136 1    
   139   71  137 1    
@<TRIPOS>SUBSTRUCTURE
     1 UNK         1 GROUP             0       ****    0 ROOT    
