@<TRIPOS>MOLECULE
3R137
137   139    1
SMALL
USER_CHARGES


@<TRIPOS>ATOM
      1 CA         25.7432   -5.8864   -6.2448 C.3       0 UNK        -0.2020 
      2 C          26.0879   -5.3556   -4.8619 C.2       0 UNK         0.4855 
      3 O          25.1851   -5.0835   -4.0700 O.2       0 UNK        -0.5197 
      4 N          27.3860   -5.1898   -4.5714 N.am      1 UNK        -0.4892 
      5 CA         27.9231   -4.6658   -3.3084 C.3       1 UNK         0.0835 
      6 C6         29.4764   -4.6989   -3.2969 C.3       12 UNK        -0.0855 
      7 S7         30.1828   -5.2126   -1.6947 S.3       12 UNK        -0.2931 
      8 C8         30.0528   -3.7098   -0.6608 C.3       12 UNK         0.0378 
      9 C9         30.7097   -2.4501   -1.2266 C.ar      12 UNK        -0.0802 
     10 C10        31.8547   -2.5006   -2.0334 C.ar      12 UNK        -0.0944 
     11 C11        32.4226   -1.3255   -2.5358 C.ar      12 UNK        -0.0787 
     12 C12        31.8655   -0.0905   -2.1961 C.ar      12 UNK        -0.0862 
     13 C13        30.7260   -0.0229   -1.3920 C.ar      12 UNK        -0.0733 
     14 C14        30.1564   -1.2048   -0.9086 C.ar      12 UNK        -0.0832 
     15 C15        30.0967    1.3258   -1.0668 C.3       12 UNK         0.0240 
     16 S16        29.5164    2.2023   -2.5578 S.3       12 UNK        -0.2522 
     17 C17        28.2763    1.0386   -3.2153 C.3       12 UNK        -0.0967 
     18 CA         28.0378    1.2233   -4.7348 C.3       5 UNK         0.0660 
     19 N          27.5866   -0.0194   -5.3676 N.am      5 UNK        -0.4015 
     20 C          27.3402   -0.1914   -6.6742 C.2       4 UNK         0.4946 
     21 O          27.5202    0.6737   -7.5273 O.2       4 UNK        -0.5353 
     22 CA         26.7114   -1.5281   -7.0935 C.3       4 UNK         0.0277 
     23 CB         27.7765   -2.6237   -7.2552 C.3       4 UNK        -0.1981 
     24 N          25.6801   -1.9493   -6.1436 N.am      4 UNK        -0.4209 
     25 C          24.4873   -1.3473   -6.0206 C.2       3 UNK         0.4942 
     26 O          24.1014   -0.4385   -6.7552 O.2       3 UNK        -0.5208 
     27 CA         23.5912   -1.8041   -4.8577 C.3       3 UNK         0.0250 
     28 CB         22.7050   -2.9855   -5.2822 C.3       3 UNK        -0.1990 
     29 N          24.3623   -2.1587   -3.6623 N.am      3 UNK        -0.4232 
     30 C          24.9996   -1.2596   -2.8960 C.2       2 UNK         0.4993 
     31 O          24.9702   -0.0463   -3.1042 O.2       2 UNK        -0.5286 
     32 CA         25.8619   -1.7994   -1.7386 C.3       2 UNK         0.0209 
     33 CB         25.0203   -1.9523   -0.4626 C.3       2 UNK        -0.1931 
     34 N          26.5303   -3.0701   -2.0422 N.am      2 UNK        -0.4546 
     35 C          27.3939   -3.2408   -3.0523 C.2       1 UNK         0.5154 
     36 O          27.7278   -2.3331   -3.8143 O.2       1 UNK        -0.5181 
     37 C          27.0782    2.3969   -5.0189 C.2       5 UNK         0.5014 
     38 O          27.5290    3.4548   -5.4602 O.2       5 UNK        -0.5248 
     39 N          25.7700    2.1703   -4.8199 N.am      6 UNK        -0.4434 
     40 CA         24.6987    3.1246   -5.1245 C.3       6 UNK         0.0363 
     41 CB         23.3577    2.5601   -4.6298 C.3       6 UNK        -0.1936 
     42 C          24.6085    3.5006   -6.6160 C.2       6 UNK         0.5081 
     43 O          24.2944    4.6486   -6.9308 O.2       6 UNK        -0.5248 
     44 N          24.9045    2.5424   -7.5039 N.am      7 UNK        -0.4718 
     45 CA         24.9718    2.7377   -8.9552 C.3       7 UNK         0.0273 
     46 CB         24.7354    1.3827   -9.6443 C.3       7 UNK        -0.1935 
     47 C          26.3000    3.3582   -9.4354 C.2       7 UNK         0.5018 
     48 O          26.3930    3.7102  -10.6122 O.2       7 UNK        -0.5186 
     49 N          27.2977    3.4584   -8.5424 N.am      8 UNK        -0.4240 
     50 CA         28.6920    3.8484   -8.7887 C.3       8 UNK         0.0235 
     51 CB         28.7886    5.3310   -9.2077 C.3       8 UNK        -0.2000 
     52 C          29.4090    2.8887   -9.7622 C.2       8 UNK         0.4941 
     53 O          30.1394    3.3375  -10.6487 O.2       8 UNK        -0.5273 
     54 N          29.1720    1.5848   -9.5827 N.am      9 UNK        -0.4262 
     55 CA         29.6981    0.4890  -10.3927 C.3       9 UNK         0.0264 
     56 CB         28.4992   -0.2641  -10.9988 C.3       9 UNK        -0.1955 
     57 C          30.5481   -0.4584   -9.5301 C.2       9 UNK         0.5031 
     58 O          30.5336   -0.3599   -8.3010 O.2       9 UNK        -0.5390 
     59 N          31.2418   -1.3867  -10.2058 N.am      10 UNK        -0.4204 
     60 CA         32.0855   -2.4513   -9.6456 C.3       10 UNK         0.0237 
     61 CB         31.2280   -3.4596   -8.8426 C.3       10 UNK        -0.1985 
     62 C          33.3022   -1.9057   -8.8666 C.2       10 UNK         0.4970 
     63 O          33.8208   -0.8438   -9.2194 O.2       10 UNK        -0.4914 
     64 N          33.7570   -2.6646   -7.8594 N.am      11 UNK        -0.4285 
     65 CA         34.8840   -2.3555   -6.9579 C.3       11 UNK         0.1007 
     66 C          36.2894   -2.3715   -7.6347 C.2       11 UNK         0.5703 
     67 N          36.4450   -2.9437   -8.8230 N.am      11 UNK        -0.7361 
     68 O          37.2654   -1.8912   -7.0624 O.2       11 UNK        -0.4986 
     69 C69        34.6485   -1.0811   -6.0945 C.3       12 UNK        -0.0947 
     70 S70        33.0635   -1.1175   -5.1919 S.3       12 UNK        -0.2240 
     71 C71        33.6133   -1.3783   -3.4785 C.3       12 UNK         0.0194 
     72 H72        25.1901   -5.1360   -6.8088 H         1 UNK         0.0906 
     73 H73        26.6335   -6.1518   -6.8146 H         1 UNK         0.0906 
     74 H74        25.1195   -6.7758   -6.1590 H         1 UNK         0.0906 
     75 H75        28.0760   -5.4189   -5.2723 H         1 UNK         0.3140 
     76 H76        27.5486   -5.3240   -2.5213 H         1 UNK         0.1085 
     77 H77        29.8378   -5.4364   -4.0151 H         1 UNK         0.0836 
     78 H78        29.9214   -3.7578   -3.6266 H         1 UNK         0.0836 
     79 H79        30.5078   -3.9232    0.3072 H         1 UNK         0.0731 
     80 H80        28.9962   -3.5257   -0.4622 H         1 UNK         0.0731 
     81 H81        32.2941   -3.4541   -2.2909 H         1 UNK         0.1312 
     82 H82        32.2980    0.8196   -2.5896 H         1 UNK         0.1406 
     83 H83        29.2736   -1.1550   -0.2856 H         1 UNK         0.1631 
     84 H84        30.8331    1.9478   -0.5562 H         1 UNK         0.0717 
     85 H85        29.2593    1.2114   -0.3767 H         1 UNK         0.0717 
     86 H86        28.6381    0.0273   -3.0322 H         1 UNK         0.0934 
     87 H87        27.3542    1.1320   -2.6391 H         1 UNK         0.0934 
     88 H88        28.9929    1.4597   -5.2093 H         1 UNK         0.0739 
     89 H89        27.4857   -0.8262   -4.7541 H         1 UNK         0.3093 
     90 H90        26.2358   -1.3806   -8.0656 H         1 UNK         0.0818 
     91 H91        27.3351   -3.5640   -7.5839 H         1 UNK         0.0819 
     92 H92        28.5091   -2.3318   -8.0080 H         1 UNK         0.0819 
     93 H93        28.3226   -2.8086   -6.3302 H         1 UNK         0.0819 
     94 H94        25.9448   -2.6396   -5.4563 H         1 UNK         0.3041 
     95 H95        22.9358   -0.9689   -4.6005 H         1 UNK         0.0784 
     96 H96        22.0851   -2.7170   -6.1388 H         1 UNK         0.0793 
     97 H97        23.2945   -3.8562   -5.5690 H         1 UNK         0.0793 
     98 H98        22.0328   -3.2860   -4.4783 H         1 UNK         0.0793 
     99 H99        24.4766   -3.1473   -3.4639 H         1 UNK         0.3024 
    100 H100       26.6400   -1.0580   -1.5456 H         1 UNK         0.1171 
    101 H101       25.6384   -2.2366    0.3893 H         1 UNK         0.0786 
    102 H102       24.5293   -1.0127   -0.2047 H         1 UNK         0.0786 
    103 H103       24.2407   -2.7061   -0.5798 H         1 UNK         0.0786 
    104 H104       26.2616   -3.8694   -1.4858 H         1 UNK         0.2977 
    105 H105       25.4859    1.2890   -4.3973 H         1 UNK         0.3127 
    106 H106       24.9096    4.0405   -4.5686 H         1 UNK         0.0770 
    107 H107       23.1023    1.6285   -5.1359 H         1 UNK         0.0814 
    108 H108       22.5456    3.2649   -4.8126 H         1 UNK         0.0814 
    109 H109       23.3811    2.3624   -3.5579 H         1 UNK         0.0814 
    110 H110       25.1205    1.6132   -7.1629 H         1 UNK         0.2983 
    111 H111       24.1706    3.4165   -9.2557 H         1 UNK         0.0947 
    112 H112       25.5235    0.6678   -9.4065 H         1 UNK         0.0806 
    113 H113       24.7130    1.4928  -10.7293 H         1 UNK         0.0806 
    114 H114       23.7841    0.9439   -9.3429 H         1 UNK         0.0806 
    115 H115       27.1114    3.1188   -7.6056 H         1 UNK         0.3000 
    116 H116       29.2051    3.7435   -7.8315 H         1 UNK         0.0850 
    117 H117       28.2869    5.9787   -8.4888 H         1 UNK         0.0810 
    118 H118       28.3430    5.5067  -10.1872 H         1 UNK         0.0810 
    119 H119       29.8291    5.6532   -9.2626 H         1 UNK         0.0810 
    120 H120       28.6033    1.2935   -8.7853 H         1 UNK         0.3040 
    121 H121       30.3264    0.8744  -11.1983 H         1 UNK         0.0766 
    122 H122       28.8233   -1.0731  -11.6541 H         1 UNK         0.0812 
    123 H123       27.8757    0.4028  -11.5947 H         1 UNK         0.0812 
    124 H124       27.8686   -0.7026  -10.2238 H         1 UNK         0.0812 
    125 H125       31.2130   -1.3516  -11.2153 H         1 UNK         0.3205 
    126 H126       32.4975   -2.9841  -10.5038 H         1 UNK         0.0754 
    127 H127       31.7789   -4.3770   -8.6331 H         1 UNK         0.0769 
    128 H128       30.3371   -3.7502   -9.3995 H         1 UNK         0.0769 
    129 H129       30.9003   -3.0435   -7.8887 H         1 UNK         0.0769 
    130 H130       33.2731   -3.5275   -7.6611 H         1 UNK         0.2981 
    131 H131       34.9203   -3.1958   -6.2639 H         1 UNK         0.0541 
    132 H132       37.3593   -2.9596   -9.2466 H         1 UNK         0.3459 
    133 H133       35.6591   -3.3538   -9.3006 H         1 UNK         0.3459 
    134 H134       35.4581   -0.9499   -5.3747 H         1 UNK         0.0612 
    135 H135       34.6588   -0.1884   -6.7214 H         1 UNK         0.0612 
    136 H136       34.3353   -0.6082   -3.2025 H         1 UNK         0.0624 
    137 H137       34.1280   -2.3374   -3.4036 H         1 UNK         0.0624 
@<TRIPOS>BOND
     1    1    2 1    
     2    1   72 1    
     3    1   73 1    
     4    1   74 1    
     5    2    3 2    
     6    2    4 am   BACKBONE|DICT|INTERRES
     7    4    5 1    
     8    4   75 1    
     9    5    6 1    
    10    5   35 1    
    11    5   76 1    
    12    6    7 1    
    13    6   77 1    
    14    6   78 1    
    15    7    8 1    
    16    8    9 1    
    17    8   79 1    
    18    8   80 1    
    19    9   10 ar   
    20    9   14 ar   
    21   10   11 ar   
    22   10   81 1    
    23   11   12 ar   
    24   11   71 1    
    25   12   13 ar   
    26   12   82 1    
    27   13   14 ar   
    28   13   15 1    
    29   14   83 1    
    30   15   16 1    
    31   15   84 1    
    32   15   85 1    
    33   16   17 1    
    34   17   18 1    
    35   17   86 1    
    36   17   87 1    
    37   18   19 1    
    38   18   37 1    
    39   18   88 1    
    40   19   20 am   BACKBONE|DICT|INTERRES
    41   19   89 1    
    42   20   21 2    
    43   20   22 1    
    44   22   23 1    
    45   22   24 1    
    46   22   90 1    
    47   23   91 1    
    48   23   92 1    
    49   23   93 1    
    50   24   25 am   BACKBONE|DICT|INTERRES
    51   24   94 1    
    52   25   26 2    
    53   25   27 1    
    54   27   28 1    
    55   27   29 1    
    56   27   95 1    
    57   28   96 1    
    58   28   97 1    
    59   28   98 1    
    60   29   30 am   BACKBONE|DICT|INTERRES
    61   29   99 1    
    62   30   31 2    
    63   30   32 1    
    64   32   33 1    
    65   32   34 1    
    66   32  100 1    
    67   33  101 1    
    68   33  102 1    
    69   33  103 1    
    70   34   35 am   BACKBONE|DICT|INTERRES
    71   34  104 1    
    72   35   36 2    
    73   37   38 2    
    74   37   39 am   BACKBONE|DICT|INTERRES
    75   39   40 1    
    76   39  105 1    
    77   40   41 1    
    78   40   42 1    
    79   40  106 1    
    80   41  107 1    
    81   41  108 1    
    82   41  109 1    
    83   42   43 2    
    84   42   44 am   BACKBONE|DICT|INTERRES
    85   44   45 1    
    86   44  110 1    
    87   45   46 1    
    88   45   47 1    
    89   45  111 1    
    90   46  112 1    
    91   46  113 1    
    92   46  114 1    
    93   47   48 2    
    94   47   49 am   BACKBONE|DICT|INTERRES
    95   49   50 1    
    96   49  115 1    
    97   50   51 1    
    98   50   52 1    
    99   50  116 1    
   100   51  117 1    
   101   51  118 1    
   102   51  119 1    
   103   52   53 2    
   104   52   54 am   BACKBONE|DICT|INTERRES
   105   54   55 1    
   106   54  120 1    
   107   55   56 1    
   108   55   57 1    
   109   55  121 1    
   110   56  122 1    
   111   56  123 1    
   112   56  124 1    
   113   57   58 2    
   114   57   59 am   BACKBONE|DICT|INTERRES
   115   59   60 1    
   116   59  125 1    
   117   60   61 1    
   118   60   62 1    
   119   60  126 1    
   120   61  127 1    
   121   61  128 1    
   122   61  129 1    
   123   62   63 2    
   124   62   64 am   BACKBONE|DICT|INTERRES
   125   64   65 1    
   126   64  130 1    
   127   65   66 1    
   128   65   69 1    
   129   65  131 1    
   130   66   67 am   BACKBONE|DICT|INTERRES
   131   66   68 2    
   132   67  132 1    
   133   67  133 1    
   134   69   70 1    
   135   69  134 1    
   136   69  135 1    
   137   70   71 1    
   138   71  136 1    
   139   71  137 1    
@<TRIPOS>SUBSTRUCTURE
     1 UNK         1 GROUP             0       ****    0 ROOT    
