@<TRIPOS>MOLECULE
3R137
137   139    1
SMALL
USER_CHARGES


@<TRIPOS>ATOM
      1 CA         24.0696   -2.4616    0.4011 C.3       0 UNK        -0.2020 
      2 C          25.4525   -2.0538   -0.0817 C.2       0 UNK         0.4855 
      3 O          25.8186   -0.8835    0.0334 O.2       0 UNK        -0.5197 
      4 N          26.2237   -3.0023   -0.6326 N.am      1 UNK        -0.4892 
      5 CA         27.5708   -2.7758   -1.1697 C.3       1 UNK         0.0835 
      6 C6         28.2605   -4.1020   -1.5728 C.3       12 UNK        -0.0855 
      7 S7         30.0786   -3.9715   -1.4929 S.3       12 UNK        -0.2931 
      8 C8         30.5979   -5.3984   -2.4981 C.3       12 UNK         0.0378 
      9 C9         30.5361   -5.0924   -3.9874 C.ar      12 UNK        -0.0802 
     10 C10        31.6052   -4.4472   -4.6161 C.ar      12 UNK        -0.0944 
     11 C11        31.5587   -4.1605   -5.9840 C.ar      12 UNK        -0.0787 
     12 C12        30.4257   -4.5144   -6.7233 C.ar      12 UNK        -0.0862 
     13 C13        29.3547   -5.1698   -6.1069 C.ar      12 UNK        -0.0733 
     14 C14        29.4206   -5.4652   -4.7419 C.ar      12 UNK        -0.0832 
     15 C15        28.1265   -5.5691   -6.9125 C.3       12 UNK         0.0240 
     16 S16        26.6333   -4.6905   -6.3541 S.3       12 UNK        -0.2522 
     17 C17        27.0900   -2.9644   -6.7213 C.3       12 UNK        -0.0967 
     18 CA         25.8461   -2.0468   -6.8108 C.3       5 UNK         0.0660 
     19 N          25.1224   -1.9924   -5.5414 N.am      5 UNK        -0.4015 
     20 C          23.8049   -1.8042   -5.4064 C.2       4 UNK         0.4946 
     21 O          23.0372   -1.6380   -6.3556 O.2       4 UNK        -0.5353 
     22 CA         23.2715   -1.7352   -3.9713 C.3       4 UNK         0.0277 
     23 CB         23.3975   -3.0948   -3.2623 C.3       4 UNK        -0.1981 
     24 N          23.9858   -0.7047   -3.2183 N.am      4 UNK        -0.4209 
     25 C          23.6719    0.5990   -3.2391 C.2       3 UNK         0.4942 
     26 O          22.6935    1.0585   -3.8287 O.2       3 UNK        -0.5208 
     27 CA         24.5969    1.5597   -2.4730 C.3       3 UNK         0.0250 
     28 CB         24.0390    1.8407   -1.0683 C.3       3 UNK        -0.1990 
     29 N          25.9690    1.0563   -2.3675 N.am      3 UNK        -0.4232 
     30 C          26.8659    1.1260   -3.3641 C.2       2 UNK         0.4993 
     31 O          26.6429    1.6738   -4.4429 O.2       2 UNK        -0.5286 
     32 CA         28.2448    0.4814   -3.1290 C.3       2 UNK         0.0209 
     33 CB         29.2324    1.5414   -2.6152 C.3       2 UNK        -0.1931 
     34 N          28.2358   -0.6469   -2.1923 N.am      2 UNK        -0.4546 
     35 C          27.5238   -1.7717   -2.3388 C.2       1 UNK         0.5154 
     36 O          26.7940   -2.0033   -3.3057 O.2       1 UNK        -0.5181 
     37 C          26.2003   -0.6185   -7.2641 C.2       5 UNK         0.5014 
     38 O          27.3751   -0.3070   -7.4659 O.2       5 UNK        -0.5248 
     39 N          25.1752    0.2279   -7.4335 N.am      6 UNK        -0.4434 
     40 CA         25.2923    1.6424   -7.8072 C.3       6 UNK         0.0363 
     41 CB         23.9061    2.3000   -7.7240 C.3       6 UNK        -0.1936 
     42 C          25.9295    1.8842   -9.1890 C.2       6 UNK         0.5081 
     43 O          26.4625    2.9677   -9.4251 O.2       6 UNK        -0.5248 
     44 N          25.8859    0.8726  -10.0678 N.am      7 UNK        -0.4718 
     45 CA         26.5856    0.8578  -11.3544 C.3       7 UNK         0.0273 
     46 CB         26.0158   -0.2733  -12.2256 C.3       7 UNK        -0.1935 
     47 C          28.1126    0.7086  -11.2095 C.2       7 UNK         0.5018 
     48 O          28.8414    1.1775  -12.0846 O.2       7 UNK        -0.5186 
     49 N          28.5675    0.0643  -10.1246 N.am      8 UNK        -0.4240 
     50 CA         29.9815   -0.0756   -9.7751 C.3       8 UNK         0.0235 
     51 CB         30.2265   -1.4449   -9.1182 C.3       8 UNK        -0.2000 
     52 C          30.4191    1.0640   -8.8451 C.2       8 UNK         0.4941 
     53 O          31.4791    1.6484   -9.0733 O.2       8 UNK        -0.5273 
     54 N          29.5894    1.3676   -7.8334 N.am      9 UNK        -0.4262 
     55 CA         29.7499    2.4174   -6.8229 C.3       9 UNK         0.0264 
     56 CB         29.5204    3.8107   -7.4497 C.3       9 UNK        -0.1955 
     57 C          31.0852    2.2860   -6.0679 C.2       9 UNK         0.5031 
     58 O          31.1923    1.4411   -5.1805 O.2       9 UNK        -0.5390 
     59 N          32.0795    3.1017   -6.4437 N.am      10 UNK        -0.4204 
     60 CA         33.4484    3.0568   -5.9233 C.3       10 UNK         0.0237 
     61 CB         34.1803    4.3452   -6.3355 C.3       10 UNK        -0.1985 
     62 C          34.2481    1.8152   -6.3688 C.2       10 UNK         0.4970 
     63 O          35.2732    1.5251   -5.7496 O.2       10 UNK        -0.4914 
     64 N          33.7801    1.1183   -7.4150 N.am      11 UNK        -0.4285 
     65 CA         34.3836   -0.0837   -8.0124 C.3       11 UNK         0.1007 
     66 C          35.7373    0.2076   -8.7317 C.2       11 UNK         0.5703 
     67 N          36.4854   -0.8171   -9.1209 N.am      11 UNK        -0.7361 
     68 O          36.1024    1.3535   -8.9916 O.2       11 UNK        -0.4986 
     69 C69        34.4464   -1.2891   -7.0244 C.3       12 UNK        -0.0947 
     70 S70        32.8243   -1.7185   -6.3018 S.3       12 UNK        -0.2240 
     71 C71        32.7484   -3.4983   -6.6620 C.3       12 UNK         0.0194 
     72 H72        23.3090   -1.8453   -0.0776 H         1 UNK         0.0906 
     73 H73        23.9934   -2.3188    1.4786 H         1 UNK         0.0906 
     74 H74        23.8507   -3.5060    0.1800 H         1 UNK         0.0906 
     75 H75        25.8661   -3.9426   -0.7229 H         1 UNK         0.3140 
     76 H76        28.1433   -2.3298   -0.3528 H         1 UNK         0.1085 
     77 H77        27.9394   -4.4284   -2.5632 H         1 UNK         0.0836 
     78 H78        27.9740   -4.9007   -0.8866 H         1 UNK         0.0836 
     79 H79        31.6199   -5.6655   -2.2248 H         1 UNK         0.0731 
     80 H80        29.9835   -6.2666   -2.2538 H         1 UNK         0.0731 
     81 H81        32.4763   -4.1656   -4.0399 H         1 UNK         0.1312 
     82 H82        30.3839   -4.2900   -7.7804 H         1 UNK         0.1406 
     83 H83        28.5928   -5.9750   -4.2681 H         1 UNK         0.1631 
     84 H84        27.9643   -6.6428   -6.8085 H         1 UNK         0.0717 
     85 H85        28.2763   -5.3829   -7.9772 H         1 UNK         0.0717 
     86 H86        27.7819   -2.6113   -5.9532 H         1 UNK         0.0934 
     87 H87        27.6408   -2.9505   -7.6637 H         1 UNK         0.0934 
     88 H88        25.1884   -2.4628   -7.5773 H         1 UNK         0.0739 
     89 H89        25.7012   -2.0708   -4.7055 H         1 UNK         0.3093 
     90 H90        22.2102   -1.4805   -4.0185 H         1 UNK         0.0818 
     91 H91        22.9077   -3.8802   -3.8394 H         1 UNK         0.0819 
     92 H92        24.4367   -3.3948   -3.1240 H         1 UNK         0.0819 
     93 H93        22.9201   -3.0732   -2.2834 H         1 UNK         0.0819 
     94 H94        24.8465   -0.9843   -2.7672 H         1 UNK         0.3041 
     95 H95        24.6147    2.5049   -3.0204 H         1 UNK         0.0784 
     96 H96        23.0462    2.2886   -1.1281 H         1 UNK         0.0793 
     97 H97        23.9470    0.9298   -0.4764 H         1 UNK         0.0793 
     98 H98        24.6748    2.5355   -0.5194 H         1 UNK         0.0793 
     99 H99        26.2150    0.5738   -1.5095 H         1 UNK         0.3024 
    100 H100       28.5991    0.1115   -4.0946 H         1 UNK         0.1171 
    101 H101       28.9472    1.9203   -1.6330 H         1 UNK         0.0786 
    102 H102       30.2431    1.1390   -2.5424 H         1 UNK         0.0786 
    103 H103       29.2765    2.3948   -3.2934 H         1 UNK         0.0786 
    104 H104       28.7933   -0.5357   -1.3575 H         1 UNK         0.2977 
    105 H105       24.2432   -0.1220   -7.2381 H         1 UNK         0.3127 
    106 H106       25.9419    2.1203   -7.0707 H         1 UNK         0.0770 
    107 H107       23.9629    3.3625   -7.9649 H         1 UNK         0.0814 
    108 H108       23.2006    1.8442   -8.4197 H         1 UNK         0.0814 
    109 H109       23.4897    2.2191   -6.7193 H         1 UNK         0.0814 
    110 H110       25.3983    0.0302   -9.8003 H         1 UNK         0.2983 
    111 H111       26.3959    1.8083  -11.8586 H         1 UNK         0.0947 
    112 H112       26.1667   -1.2523  -11.7689 H         1 UNK         0.0806 
    113 H113       26.4993   -0.2926  -13.2035 H         1 UNK         0.0806 
    114 H114       24.9473   -0.1425  -12.3978 H         1 UNK         0.0806 
    115 H115       27.9019   -0.2265   -9.4179 H         1 UNK         0.3000 
    116 H116       30.5908   -0.0262  -10.6803 H         1 UNK         0.0850 
    117 H117       31.2903   -1.5973   -8.9344 H         1 UNK         0.0810 
    118 H118       29.8897   -2.2594   -9.7593 H         1 UNK         0.0810 
    119 H119       29.7164   -1.5390   -8.1588 H         1 UNK         0.0810 
    120 H120       28.7717    0.7723   -7.7020 H         1 UNK         0.3040 
    121 H121       28.9623    2.2553   -6.0849 H         1 UNK         0.0766 
    122 H122       29.6533    4.6027   -6.7113 H         1 UNK         0.0812 
    123 H123       28.5025    3.8990   -7.8290 H         1 UNK         0.0812 
    124 H124       30.1946    4.0119   -8.2826 H         1 UNK         0.0812 
    125 H125       31.9053    3.7343   -7.2113 H         1 UNK         0.3205 
    126 H126       33.3921    3.0291   -4.8330 H         1 UNK         0.0754 
    127 H127       35.1928    4.3660   -5.9298 H         1 UNK         0.0769 
    128 H128       33.6664    5.2317   -5.9632 H         1 UNK         0.0769 
    129 H129       34.2628    4.4324   -7.4198 H         1 UNK         0.0769 
    130 H130       32.9461    1.4535   -7.8892 H         1 UNK         0.2981 
    131 H131       33.7023   -0.3601   -8.8176 H         1 UNK         0.0541 
    132 H132       37.3514   -0.6325   -9.6027 H         1 UNK         0.3459 
    133 H133       36.2036   -1.7683   -8.9454 H         1 UNK         0.3459 
    134 H134       35.1402   -1.0857   -6.2078 H         1 UNK         0.0612 
    135 H135       34.8361   -2.1724   -7.5312 H         1 UNK         0.0612 
    136 H136       33.6674   -3.9758   -6.3182 H         1 UNK         0.0624 
    137 H137       32.7075   -3.6436   -7.7426 H         1 UNK         0.0624 
@<TRIPOS>BOND
     1    1    2 1    
     2    1   72 1    
     3    1   73 1    
     4    1   74 1    
     5    2    3 2    
     6    2    4 am   BACKBONE|DICT|INTERRES
     7    4    5 1    
     8    4   75 1    
     9    5    6 1    
    10    5   35 1    
    11    5   76 1    
    12    6    7 1    
    13    6   77 1    
    14    6   78 1    
    15    7    8 1    
    16    8    9 1    
    17    8   79 1    
    18    8   80 1    
    19    9   10 ar   
    20    9   14 ar   
    21   10   11 ar   
    22   10   81 1    
    23   11   12 ar   
    24   11   71 1    
    25   12   13 ar   
    26   12   82 1    
    27   13   14 ar   
    28   13   15 1    
    29   14   83 1    
    30   15   16 1    
    31   15   84 1    
    32   15   85 1    
    33   16   17 1    
    34   17   18 1    
    35   17   86 1    
    36   17   87 1    
    37   18   19 1    
    38   18   37 1    
    39   18   88 1    
    40   19   20 am   BACKBONE|DICT|INTERRES
    41   19   89 1    
    42   20   21 2    
    43   20   22 1    
    44   22   23 1    
    45   22   24 1    
    46   22   90 1    
    47   23   91 1    
    48   23   92 1    
    49   23   93 1    
    50   24   25 am   BACKBONE|DICT|INTERRES
    51   24   94 1    
    52   25   26 2    
    53   25   27 1    
    54   27   28 1    
    55   27   29 1    
    56   27   95 1    
    57   28   96 1    
    58   28   97 1    
    59   28   98 1    
    60   29   30 am   BACKBONE|DICT|INTERRES
    61   29   99 1    
    62   30   31 2    
    63   30   32 1    
    64   32   33 1    
    65   32   34 1    
    66   32  100 1    
    67   33  101 1    
    68   33  102 1    
    69   33  103 1    
    70   34   35 am   BACKBONE|DICT|INTERRES
    71   34  104 1    
    72   35   36 2    
    73   37   38 2    
    74   37   39 am   BACKBONE|DICT|INTERRES
    75   39   40 1    
    76   39  105 1    
    77   40   41 1    
    78   40   42 1    
    79   40  106 1    
    80   41  107 1    
    81   41  108 1    
    82   41  109 1    
    83   42   43 2    
    84   42   44 am   BACKBONE|DICT|INTERRES
    85   44   45 1    
    86   44  110 1    
    87   45   46 1    
    88   45   47 1    
    89   45  111 1    
    90   46  112 1    
    91   46  113 1    
    92   46  114 1    
    93   47   48 2    
    94   47   49 am   BACKBONE|DICT|INTERRES
    95   49   50 1    
    96   49  115 1    
    97   50   51 1    
    98   50   52 1    
    99   50  116 1    
   100   51  117 1    
   101   51  118 1    
   102   51  119 1    
   103   52   53 2    
   104   52   54 am   BACKBONE|DICT|INTERRES
   105   54   55 1    
   106   54  120 1    
   107   55   56 1    
   108   55   57 1    
   109   55  121 1    
   110   56  122 1    
   111   56  123 1    
   112   56  124 1    
   113   57   58 2    
   114   57   59 am   BACKBONE|DICT|INTERRES
   115   59   60 1    
   116   59  125 1    
   117   60   61 1    
   118   60   62 1    
   119   60  126 1    
   120   61  127 1    
   121   61  128 1    
   122   61  129 1    
   123   62   63 2    
   124   62   64 am   BACKBONE|DICT|INTERRES
   125   64   65 1    
   126   64  130 1    
   127   65   66 1    
   128   65   69 1    
   129   65  131 1    
   130   66   67 am   BACKBONE|DICT|INTERRES
   131   66   68 2    
   132   67  132 1    
   133   67  133 1    
   134   69   70 1    
   135   69  134 1    
   136   69  135 1    
   137   70   71 1    
   138   71  136 1    
   139   71  137 1    
@<TRIPOS>SUBSTRUCTURE
     1 UNK         1 GROUP             0       ****    0 ROOT    
