@<TRIPOS>MOLECULE
3R137
137   139    1
SMALL
USER_CHARGES


@<TRIPOS>ATOM
      1 CA         28.0862   -1.0583    3.4273 C.3       0 UNK        -0.2020 
      2 C          27.8734   -0.8895    1.9308 C.2       0 UNK         0.4855 
      3 O          27.8754    0.2372    1.4327 O.2       0 UNK        -0.5197 
      4 N          27.6748   -1.9969    1.2043 N.am      1 UNK        -0.4892 
      5 CA         27.4492   -2.0395   -0.2466 C.3       1 UNK         0.0835 
      6 C6         27.9105   -3.4004   -0.8333 C.3       12 UNK        -0.0855 
      7 S7         28.3154   -3.2854   -2.6076 S.3       12 UNK        -0.2931 
      8 C8         30.0363   -3.8769   -2.6413 C.3       12 UNK         0.0378 
      9 C9         30.5778   -3.9809   -4.0622 C.ar      12 UNK        -0.0802 
     10 C10        31.7499   -3.3090   -4.4247 C.ar      12 UNK        -0.0944 
     11 C11        32.2830   -3.4547   -5.7094 C.ar      12 UNK        -0.0787 
     12 C12        31.6177   -4.2533   -6.6460 C.ar      12 UNK        -0.0862 
     13 C13        30.4444   -4.9296   -6.2978 C.ar      12 UNK        -0.0733 
     14 C14        29.9365   -4.7953   -5.0019 C.ar      12 UNK        -0.0832 
     15 C15        29.7633   -5.8548   -7.2999 C.3       12 UNK         0.0240 
     16 S16        28.7276   -4.9627   -8.5046 S.3       12 UNK        -0.2522 
     17 C17        27.3074   -4.4521   -7.4751 C.3       12 UNK        -0.0967 
     18 CA         26.6822   -3.0993   -7.9129 C.3       5 UNK         0.0660 
     19 N          25.3990   -2.7988   -7.2631 N.am      5 UNK        -0.4015 
     20 C          25.1694   -2.6924   -5.9474 C.2       4 UNK         0.4946 
     21 O          26.0028   -2.9556   -5.0805 O.2       4 UNK        -0.5353 
     22 CA         23.8037   -2.1267   -5.5242 C.3       4 UNK         0.0277 
     23 CB         22.9983   -3.1721   -4.7359 C.3       4 UNK        -0.1981 
     24 N          23.9578   -0.9201   -4.7054 N.am      4 UNK        -0.4209 
     25 C          24.6316    0.1839   -5.0536 C.2       3 UNK         0.4942 
     26 O          25.1694    0.3304   -6.1515 O.2       3 UNK        -0.5208 
     27 CA         24.7487    1.3262   -4.0270 C.3       3 UNK         0.0250 
     28 CB         23.6472    2.3794   -4.2577 C.3       3 UNK        -0.1990 
     29 N          24.8157    0.9236   -2.6119 N.am      3 UNK        -0.4232 
     30 C          23.8751    0.3457   -1.8494 C.2       2 UNK         0.4993 
     31 O          22.7785   -0.0250   -2.2722 O.2       2 UNK        -0.5286 
     32 CA         24.2448    0.1450   -0.3673 C.3       2 UNK         0.0209 
     33 CB         23.1735   -0.6344    0.4268 C.3       2 UNK        -0.1931 
     34 N          25.5734   -0.4579   -0.1930 N.am      2 UNK        -0.4546 
     35 C          25.9839   -1.6715   -0.5930 C.2       1 UNK         0.5154 
     36 O          25.2533   -2.4824   -1.1645 O.2       1 UNK        -0.5181 
     37 C          27.6709   -1.9180   -7.8040 C.2       5 UNK         0.5014 
     38 O          28.1136   -1.4164   -8.8377 O.2       5 UNK        -0.5248 
     39 N          27.9816   -1.4830   -6.5753 N.am      6 UNK        -0.4434 
     40 CA         28.9861   -0.4688   -6.2465 C.3       6 UNK         0.0363 
     41 CB         29.0049   -0.2281   -4.7298 C.3       6 UNK        -0.1936 
     42 C          28.8494    0.8669   -6.9942 C.2       6 UNK         0.5081 
     43 O          29.8701    1.4257   -7.3926 O.2       6 UNK        -0.5248 
     44 N          27.6182    1.3562   -7.1948 N.am      7 UNK        -0.4718 
     45 CA         27.3549    2.6013   -7.9243 C.3       7 UNK         0.0273 
     46 CB         25.9280    3.0871   -7.6269 C.3       7 UNK        -0.1935 
     47 C          27.5764    2.4742   -9.4414 C.2       7 UNK         0.5018 
     48 O          27.9467    3.4618  -10.0762 O.2       7 UNK        -0.5186 
     49 N          27.3598    1.2724   -9.9935 N.am      8 UNK        -0.4240 
     50 CA         27.5956    0.9583  -11.4045 C.3       8 UNK         0.0235 
     51 CB         26.7043   -0.2207  -11.8295 C.3       8 UNK        -0.2000 
     52 C          29.0767    0.6480  -11.6660 C.2       8 UNK         0.4941 
     53 O          29.6265    1.1038  -12.6689 O.2       8 UNK        -0.5273 
     54 N          29.6976   -0.1037  -10.7471 N.am      9 UNK        -0.4262 
     55 CA         31.1144   -0.4721  -10.7691 C.3       9 UNK         0.0264 
     56 CB         31.3186   -1.6708   -9.8286 C.3       9 UNK        -0.1955 
     57 C          32.0660    0.6853  -10.4032 C.2       9 UNK         0.5031 
     58 O          33.2636    0.5723  -10.6685 O.2       9 UNK        -0.5390 
     59 N          31.5242    1.7618   -9.8121 N.am      10 UNK        -0.4204 
     60 CA         32.2085    2.9587   -9.3065 C.3       10 UNK         0.0237 
     61 CB         32.9083    3.7339  -10.4439 C.3       10 UNK        -0.1985 
     62 C          33.1343    2.6414   -8.1161 C.2       10 UNK         0.4970 
     63 O          34.2588    3.1419   -8.0500 O.2       10 UNK        -0.4914 
     64 N          32.6284    1.8133   -7.1964 N.am      11 UNK        -0.4285 
     65 CA         33.3094    1.3790   -5.9674 C.3       11 UNK         0.1007 
     66 C          33.0609    2.3204   -4.7549 C.2       11 UNK         0.5703 
     67 N          32.1702    3.3021   -4.8428 N.am      11 UNK        -0.7361 
     68 O          33.6999    2.1657   -3.7169 O.2       11 UNK        -0.4986 
     69 C69        32.9599   -0.0908   -5.6140 C.3       12 UNK        -0.0947 
     70 S70        33.3936   -1.2385   -6.9618 S.3       12 UNK        -0.2240 
     71 C71        33.6113   -2.8044   -6.0694 C.3       12 UNK         0.0194 
     72 H72        29.0513   -0.6441    3.7174 H         1 UNK         0.0906 
     73 H73        27.3089   -0.5296    3.9785 H         1 UNK         0.0906 
     74 H74        28.0628   -2.1056    3.7278 H         1 UNK         0.0906 
     75 H75        27.6416   -2.8912    1.6742 H         1 UNK         0.3140 
     76 H76        28.0755   -1.2646   -0.6958 H         1 UNK         0.1085 
     77 H77        27.1632   -4.1816   -0.6815 H         1 UNK         0.0836 
     78 H78        28.8015   -3.7454   -0.3061 H         1 UNK         0.0836 
     79 H79        30.0900   -4.8602   -2.1721 H         1 UNK         0.0731 
     80 H80        30.6518   -3.2070   -2.0388 H         1 UNK         0.0731 
     81 H81        32.2661   -2.6957   -3.6989 H         1 UNK         0.1312 
     82 H82        32.0275   -4.3685   -7.6403 H         1 UNK         0.1406 
     83 H83        29.0413   -5.3304   -4.7151 H         1 UNK         0.1631 
     84 H84        29.1552   -6.6004   -6.7852 H         1 UNK         0.0717 
     85 H85        30.5247   -6.4142   -7.8454 H         1 UNK         0.0717 
     86 H86        26.5561   -5.2409   -7.5334 H         1 UNK         0.0934 
     87 H87        27.6129   -4.4107   -6.4307 H         1 UNK         0.0934 
     88 H88        26.4388   -3.1921   -8.9728 H         1 UNK         0.0739 
     89 H89        24.6594   -2.5245   -7.8945 H         1 UNK         0.3093 
     90 H90        23.2366   -1.8500   -6.4151 H         1 UNK         0.0818 
     91 H91        22.0087   -2.7972   -4.4741 H         1 UNK         0.0819 
     92 H92        22.8576   -4.0815   -5.3215 H         1 UNK         0.0819 
     93 H93        23.5053   -3.4532   -3.8111 H         1 UNK         0.0819 
     94 H94        23.5244   -0.9234   -3.7867 H         1 UNK         0.3041 
     95 H95        25.7048    1.8110   -4.2317 H         1 UNK         0.0784 
     96 H96        23.6580    2.7365   -5.2883 H         1 UNK         0.0793 
     97 H97        22.6516    1.9770   -4.0685 H         1 UNK         0.0793 
     98 H98        23.7869    3.2473   -3.6133 H         1 UNK         0.0793 
     99 H99        25.6939    1.1346   -2.1582 H         1 UNK         0.3024 
    100 H100       24.3008    1.1458    0.0647 H         1 UNK         0.1171 
    101 H101       23.0129   -1.6345    0.0230 H         1 UNK         0.0786 
    102 H102       22.2139   -0.1168    0.3971 H         1 UNK         0.0786 
    103 H103       23.4532   -0.7368    1.4752 H         1 UNK         0.0786 
    104 H104       26.2565    0.1017    0.3119 H         1 UNK         0.2977 
    105 H105       27.5175   -1.9437   -5.7961 H         1 UNK         0.3127 
    106 H106       29.9506   -0.8917   -6.5337 H         1 UNK         0.0770 
    107 H107       29.6730    0.5930   -4.4656 H         1 UNK         0.0814 
    108 H108       28.0139    0.0179   -4.3468 H         1 UNK         0.0814 
    109 H109       29.3635   -1.1102   -4.2021 H         1 UNK         0.0814 
    110 H110       26.8092    0.8498   -6.8375 H         1 UNK         0.2983 
    111 H111       28.0497    3.3610   -7.5588 H         1 UNK         0.0947 
    112 H112       25.7237    4.0325   -8.1314 H         1 UNK         0.0806 
    113 H113       25.7820    3.2520   -6.5597 H         1 UNK         0.0806 
    114 H114       25.1784    2.3695   -7.9625 H         1 UNK         0.0806 
    115 H115       27.1306    0.4974   -9.3840 H         1 UNK         0.3000 
    116 H116       27.3212    1.8237  -12.0121 H         1 UNK         0.0850 
    117 H117       25.6484    0.0109  -11.6891 H         1 UNK         0.0810 
    118 H118       26.9266   -1.1263  -11.2638 H         1 UNK         0.0810 
    119 H119       26.8470   -0.4540  -12.8855 H         1 UNK         0.0810 
    120 H120       29.1419   -0.4926   -9.9850 H         1 UNK         0.3040 
    121 H121       31.3678   -0.7888  -11.7830 H         1 UNK         0.0766 
    122 H122       32.3613   -1.9906   -9.8180 H         1 UNK         0.0812 
    123 H123       30.7193   -2.5271  -10.1387 H         1 UNK         0.0812 
    124 H124       31.0385   -1.4269   -8.8032 H         1 UNK         0.0812 
    125 H125       30.5423    1.7012   -9.5756 H         1 UNK         0.3205 
    126 H126       31.4230    3.6042   -8.9104 H         1 UNK         0.0754 
    127 H127       33.2902    4.6904  -10.0852 H         1 UNK         0.0769 
    128 H128       32.2184    3.9463  -11.2607 H         1 UNK         0.0769 
    129 H129       33.7542    3.1814  -10.8538 H         1 UNK         0.0769 
    130 H130       31.6645    1.5039   -7.3058 H         1 UNK         0.2981 
    131 H131       34.3857    1.4153   -6.1459 H         1 UNK         0.0541 
    132 H132       31.6381    3.4335   -5.6877 H         1 UNK         0.3459 
    133 H133       32.0250    3.9095   -4.0522 H         1 UNK         0.3459 
    134 H134       31.8979   -0.1958   -5.3934 H         1 UNK         0.0612 
    135 H135       33.4936   -0.3999   -4.7136 H         1 UNK         0.0612 
    136 H136       34.1848   -3.4835   -6.7019 H         1 UNK         0.0624 
    137 H137       34.2186   -2.6414   -5.1778 H         1 UNK         0.0624 
@<TRIPOS>BOND
     1    1    2 1    
     2    1   72 1    
     3    1   73 1    
     4    1   74 1    
     5    2    3 2    
     6    2    4 am   BACKBONE|DICT|INTERRES
     7    4    5 1    
     8    4   75 1    
     9    5    6 1    
    10    5   35 1    
    11    5   76 1    
    12    6    7 1    
    13    6   77 1    
    14    6   78 1    
    15    7    8 1    
    16    8    9 1    
    17    8   79 1    
    18    8   80 1    
    19    9   10 ar   
    20    9   14 ar   
    21   10   11 ar   
    22   10   81 1    
    23   11   12 ar   
    24   11   71 1    
    25   12   13 ar   
    26   12   82 1    
    27   13   14 ar   
    28   13   15 1    
    29   14   83 1    
    30   15   16 1    
    31   15   84 1    
    32   15   85 1    
    33   16   17 1    
    34   17   18 1    
    35   17   86 1    
    36   17   87 1    
    37   18   19 1    
    38   18   37 1    
    39   18   88 1    
    40   19   20 am   BACKBONE|DICT|INTERRES
    41   19   89 1    
    42   20   21 2    
    43   20   22 1    
    44   22   23 1    
    45   22   24 1    
    46   22   90 1    
    47   23   91 1    
    48   23   92 1    
    49   23   93 1    
    50   24   25 am   BACKBONE|DICT|INTERRES
    51   24   94 1    
    52   25   26 2    
    53   25   27 1    
    54   27   28 1    
    55   27   29 1    
    56   27   95 1    
    57   28   96 1    
    58   28   97 1    
    59   28   98 1    
    60   29   30 am   BACKBONE|DICT|INTERRES
    61   29   99 1    
    62   30   31 2    
    63   30   32 1    
    64   32   33 1    
    65   32   34 1    
    66   32  100 1    
    67   33  101 1    
    68   33  102 1    
    69   33  103 1    
    70   34   35 am   BACKBONE|DICT|INTERRES
    71   34  104 1    
    72   35   36 2    
    73   37   38 2    
    74   37   39 am   BACKBONE|DICT|INTERRES
    75   39   40 1    
    76   39  105 1    
    77   40   41 1    
    78   40   42 1    
    79   40  106 1    
    80   41  107 1    
    81   41  108 1    
    82   41  109 1    
    83   42   43 2    
    84   42   44 am   BACKBONE|DICT|INTERRES
    85   44   45 1    
    86   44  110 1    
    87   45   46 1    
    88   45   47 1    
    89   45  111 1    
    90   46  112 1    
    91   46  113 1    
    92   46  114 1    
    93   47   48 2    
    94   47   49 am   BACKBONE|DICT|INTERRES
    95   49   50 1    
    96   49  115 1    
    97   50   51 1    
    98   50   52 1    
    99   50  116 1    
   100   51  117 1    
   101   51  118 1    
   102   51  119 1    
   103   52   53 2    
   104   52   54 am   BACKBONE|DICT|INTERRES
   105   54   55 1    
   106   54  120 1    
   107   55   56 1    
   108   55   57 1    
   109   55  121 1    
   110   56  122 1    
   111   56  123 1    
   112   56  124 1    
   113   57   58 2    
   114   57   59 am   BACKBONE|DICT|INTERRES
   115   59   60 1    
   116   59  125 1    
   117   60   61 1    
   118   60   62 1    
   119   60  126 1    
   120   61  127 1    
   121   61  128 1    
   122   61  129 1    
   123   62   63 2    
   124   62   64 am   BACKBONE|DICT|INTERRES
   125   64   65 1    
   126   64  130 1    
   127   65   66 1    
   128   65   69 1    
   129   65  131 1    
   130   66   67 am   BACKBONE|DICT|INTERRES
   131   66   68 2    
   132   67  132 1    
   133   67  133 1    
   134   69   70 1    
   135   69  134 1    
   136   69  135 1    
   137   70   71 1    
   138   71  136 1    
   139   71  137 1    
@<TRIPOS>SUBSTRUCTURE
     1 UNK         1 GROUP             0       ****    0 ROOT    
