@<TRIPOS>MOLECULE
3R137
137   139    1
SMALL
USER_CHARGES


@<TRIPOS>ATOM
      1 CA         24.3168   -6.2648   -4.1246 C.3       0 UNK        -0.2020 
      2 C          24.8340   -5.4151   -2.9735 C.2       0 UNK         0.4855 
      3 O          24.0713   -4.6431   -2.3906 O.2       0 UNK        -0.5197 
      4 N          26.1247   -5.5542   -2.6406 N.am      1 UNK        -0.4892 
      5 CA         26.8157   -4.8144   -1.5792 C.3       1 UNK         0.0835 
      6 C6         28.2599   -5.3411   -1.3892 C.3       12 UNK        -0.0855 
      7 S7         29.0047   -4.7892    0.1831 S.3       12 UNK        -0.2931 
      8 C8         30.7409   -4.4929   -0.3056 C.3       12 UNK         0.0378 
      9 C9         30.9216   -3.3993   -1.3573 C.ar      12 UNK        -0.0802 
     10 C10        31.8478   -3.5776   -2.3897 C.ar      12 UNK        -0.0944 
     11 C11        32.0465   -2.5820   -3.3514 C.ar      12 UNK        -0.0787 
     12 C12        31.2920   -1.4073   -3.2892 C.ar      12 UNK        -0.0862 
     13 C13        30.3629   -1.2085   -2.2589 C.ar      12 UNK        -0.0733 
     14 C14        30.1969   -2.2049   -1.2926 C.ar      12 UNK        -0.0832 
     15 C15        29.4754    0.0311   -2.1829 C.3       12 UNK         0.0240 
     16 S16        30.1606    1.5229   -2.9764 S.3       12 UNK        -0.2522 
     17 C17        28.6314    2.4082   -3.4276 C.3       12 UNK        -0.0967 
     18 CA         28.2062    2.0861   -4.8804 C.3       5 UNK         0.0660 
     19 N          27.8050    0.6886   -5.0550 N.am      5 UNK        -0.4015 
     20 C          27.8319    0.0356   -6.2231 C.2       4 UNK         0.4946 
     21 O          28.2184    0.5402   -7.2759 O.2       4 UNK        -0.5353 
     22 CA         27.3052   -1.4092   -6.2282 C.3       4 UNK         0.0277 
     23 CB         28.4322   -2.3929   -5.8727 C.3       4 UNK        -0.1981 
     24 N          26.1767   -1.6009   -5.3124 N.am      4 UNK        -0.4209 
     25 C          24.9759   -1.0193   -5.4682 C.2       3 UNK         0.4942 
     26 O          24.6894   -0.3083   -6.4291 O.2       3 UNK        -0.5208 
     27 CA         23.9289   -1.2031   -4.3543 C.3       3 UNK         0.0250 
     28 CB         22.9635   -2.3430   -4.7095 C.3       3 UNK        -0.1990 
     29 N          24.5050   -1.4363   -3.0288 N.am      3 UNK        -0.4232 
     30 C          25.3295   -0.5898   -2.3924 C.2       2 UNK         0.4993 
     31 O          25.6669    0.5064   -2.8460 O.2       2 UNK        -0.5286 
     32 CA         25.9384   -1.0752   -1.0633 C.3       2 UNK         0.0209 
     33 CB         25.0783   -0.6013    0.1183 C.3       2 UNK        -0.1931 
     34 N          26.1339   -2.5294   -0.9697 N.am      2 UNK        -0.4546 
     35 C          26.7795   -3.2979   -1.8614 C.2       1 UNK         0.5154 
     36 O          27.2856   -2.8651   -2.8980 O.2       1 UNK        -0.5181 
     37 C          27.0967    3.0325   -5.3695 C.2       5 UNK         0.5014 
     38 O          27.4134    4.0572   -5.9739 O.2       5 UNK        -0.5248 
     39 N          25.8250    2.6625   -5.1483 N.am      6 UNK        -0.4434 
     40 CA         24.6562    3.3832   -5.6649 C.3       6 UNK         0.0363 
     41 CB         23.3730    2.8094   -5.0443 C.3       6 UNK        -0.1936 
     42 C          24.5768    3.3597   -7.2031 C.2       6 UNK         0.5081 
     43 O          24.2795    4.3881   -7.8109 O.2       6 UNK        -0.5248 
     44 N          24.8713    2.1983   -7.8042 N.am      7 UNK        -0.4718 
     45 CA         24.9464    1.9999   -9.2551 C.3       7 UNK         0.0273 
     46 CB         24.8501    0.4947   -9.5554 C.3       7 UNK        -0.1935 
     47 C          26.2201    2.5815   -9.8970 C.2       7 UNK         0.5018 
     48 O          26.2496    2.7282  -11.1195 O.2       7 UNK        -0.5186 
     49 N          27.2408    2.8754   -9.0767 N.am      8 UNK        -0.4240 
     50 CA         28.5932    3.3104   -9.4455 C.3       8 UNK         0.0235 
     51 CB         28.5708    4.7083  -10.1000 C.3       8 UNK        -0.2000 
     52 C          29.3244    2.2482  -10.2897 C.2       8 UNK         0.4941 
     53 O          29.8221    2.5469  -11.3781 O.2       8 UNK        -0.5273 
     54 N          29.3442    1.0132   -9.7719 N.am      9 UNK        -0.4262 
     55 CA         29.9955   -0.1528  -10.3677 C.3       9 UNK         0.0264 
     56 CB         29.5466   -1.4093   -9.6036 C.3       9 UNK        -0.1955 
     57 C          31.5300   -0.0445  -10.3562 C.2       9 UNK         0.5031 
     58 O          32.1008    0.7325   -9.5848 O.2       9 UNK        -0.5390 
     59 N          32.1688   -0.8761  -11.1902 N.am      10 UNK        -0.4204 
     60 CA         33.6165   -0.9228  -11.4250 C.3       10 UNK         0.0237 
     61 CB         33.9141   -1.9730  -12.5085 C.3       10 UNK        -0.1985 
     62 C          34.4898   -1.1769  -10.1814 C.2       10 UNK         0.4970 
     63 O          35.6654   -0.8090  -10.2069 O.2       10 UNK        -0.4914 
     64 N          33.9248   -1.7833   -9.1267 N.am      11 UNK        -0.4285 
     65 CA         34.5998   -1.9569   -7.8317 C.3       11 UNK         0.1007 
     66 C          34.7570   -0.6479   -6.9991 C.2       11 UNK         0.5703 
     67 N          34.0762    0.4440   -7.3329 N.am      11 UNK        -0.7361 
     68 O          35.5300   -0.6204   -6.0446 O.2       11 UNK        -0.4986 
     69 C69        34.0210   -3.1523   -7.0226 C.3       12 UNK        -0.0947 
     70 S70        32.4627   -2.8413   -6.1125 S.3       12 UNK        -0.2240 
     71 C71        33.1231   -2.7488   -4.4150 C.3       12 UNK         0.0194 
     72 H72        24.0737   -5.6362   -4.9802 H         1 UNK         0.0906 
     73 H73        25.0493   -7.0055   -4.4453 H         1 UNK         0.0906 
     74 H74        23.4132   -6.7941   -3.8230 H         1 UNK         0.0906 
     75 H75        26.7038   -6.1824   -3.1794 H         1 UNK         0.3140 
     76 H76        26.2628   -5.0089   -0.6574 H         1 UNK         0.1085 
     77 H77        28.8893   -5.0553   -2.2345 H         1 UNK         0.0836 
     78 H78        28.2600   -6.4322   -1.3734 H         1 UNK         0.0836 
     79 H79        31.1623   -5.4358   -0.6580 H         1 UNK         0.0731 
     80 H80        31.3099   -4.2149    0.5824 H         1 UNK         0.0731 
     81 H81        32.4312   -4.4873   -2.4337 H         1 UNK         0.1312 
     82 H82        31.4378   -0.6536   -4.0502 H         1 UNK         0.1406 
     83 H83        29.4800   -2.0600   -0.4962 H         1 UNK         0.1631 
     84 H84        29.2574    0.2753   -1.1421 H         1 UNK         0.0717 
     85 H85        28.5267   -0.2292   -2.6480 H         1 UNK         0.0717 
     86 H86        27.8357    2.1786   -2.7161 H         1 UNK         0.0934 
     87 H87        28.8343    3.4757   -3.3187 H         1 UNK         0.0934 
     88 H88        29.0720    2.2685   -5.5220 H         1 UNK         0.0739 
     89 H89        27.4061    0.2283   -4.2485 H         1 UNK         0.3093 
     90 H90        26.9589   -1.6335   -7.2393 H         1 UNK         0.0818 
     91 H91        29.2525   -2.3300   -6.5865 H         1 UNK         0.0819 
     92 H92        28.0783   -3.4237   -5.8763 H         1 UNK         0.0819 
     93 H93        28.8536   -2.1889   -4.8877 H         1 UNK         0.0819 
     94 H94        26.3655   -2.1423   -4.4723 H         1 UNK         0.3041 
     95 H95        23.3511   -0.2798   -4.2921 H         1 UNK         0.0784 
     96 H96        22.4608   -2.1457   -5.6574 H         1 UNK         0.0793 
     97 H97        23.4855   -3.2937   -4.8108 H         1 UNK         0.0793 
     98 H98        22.1897   -2.4629   -3.9509 H         1 UNK         0.0793 
     99 H99        24.3122   -2.3341   -2.6005 H         1 UNK         0.3024 
    100 H100       26.9197   -0.6105   -0.9697 H         1 UNK         0.1171 
    101 H101       25.5503   -0.8342    1.0730 H         1 UNK         0.0786 
    102 H102       24.9334    0.4798    0.0872 H         1 UNK         0.0786 
    103 H103       24.0900   -1.0630    0.1094 H         1 UNK         0.0786 
    104 H104       25.7250   -2.9787   -0.1627 H         1 UNK         0.2977 
    105 H105       25.6486    1.8276   -4.6015 H         1 UNK         0.3127 
    106 H106       24.7471    4.4256   -5.3518 H         1 UNK         0.0770 
    107 H107       23.1827    1.7906   -5.3804 H         1 UNK         0.0814 
    108 H108       22.5065    3.4084   -5.3274 H         1 UNK         0.0814 
    109 H109       23.4221    2.8033   -3.9552 H         1 UNK         0.0814 
    110 H110       25.0161    1.3708   -7.2291 H         1 UNK         0.2983 
    111 H111       24.0914    2.4985   -9.7168 H         1 UNK         0.0947 
    112 H112       24.8639    0.3061  -10.6297 H         1 UNK         0.0806 
    113 H113       23.9256    0.0701   -9.1638 H         1 UNK         0.0806 
    114 H114       25.6836   -0.0555   -9.1159 H         1 UNK         0.0806 
    115 H115       27.1018    2.6887   -8.0928 H         1 UNK         0.3000 
    116 H116       29.1505    3.3948   -8.5109 H         1 UNK         0.0850 
    117 H117       29.5844    5.0718  -10.2730 H         1 UNK         0.0810 
    118 H118       28.0696    5.4355   -9.4611 H         1 UNK         0.0810 
    119 H119       28.0612    4.7001  -11.0639 H         1 UNK         0.0810 
    120 H120       28.9237    0.8690   -8.8528 H         1 UNK         0.3040 
    121 H121       29.6597   -0.2282  -11.4041 H         1 UNK         0.0766 
    122 H122       28.4597   -1.4870   -9.5663 H         1 UNK         0.0812 
    123 H123       29.9173   -1.3975   -8.5787 H         1 UNK         0.0812 
    124 H124       29.9195   -2.3190  -10.0753 H         1 UNK         0.0812 
    125 H125       31.6107   -1.4941  -11.7622 H         1 UNK         0.3205 
    126 H126       33.9050    0.0560  -11.8138 H         1 UNK         0.0754 
    127 H127       34.9810   -2.0126  -12.7339 H         1 UNK         0.0769 
    128 H128       33.3992   -1.7407  -13.4411 H         1 UNK         0.0769 
    129 H129       33.6106   -2.9729  -12.1953 H         1 UNK         0.0769 
    130 H130       32.9504   -2.0398   -9.1664 H         1 UNK         0.2981 
    131 H131       35.6248   -2.2484   -8.0700 H         1 UNK         0.0541 
    132 H132       34.1977    1.2825   -6.7888 H         1 UNK         0.3459 
    133 H133       33.4344    0.4435   -8.1195 H         1 UNK         0.3459 
    134 H134       34.7773   -3.4990   -6.3167 H         1 UNK         0.0612 
    135 H135       33.8537   -4.0004   -7.6883 H         1 UNK         0.0612 
    136 H136       33.7099   -3.6471   -4.2164 H         1 UNK         0.0624 
    137 H137       33.8153   -1.9094   -4.3442 H         1 UNK         0.0624 
@<TRIPOS>BOND
     1    1    2 1    
     2    1   72 1    
     3    1   73 1    
     4    1   74 1    
     5    2    3 2    
     6    2    4 am   BACKBONE|DICT|INTERRES
     7    4    5 1    
     8    4   75 1    
     9    5    6 1    
    10    5   35 1    
    11    5   76 1    
    12    6    7 1    
    13    6   77 1    
    14    6   78 1    
    15    7    8 1    
    16    8    9 1    
    17    8   79 1    
    18    8   80 1    
    19    9   10 ar   
    20    9   14 ar   
    21   10   11 ar   
    22   10   81 1    
    23   11   12 ar   
    24   11   71 1    
    25   12   13 ar   
    26   12   82 1    
    27   13   14 ar   
    28   13   15 1    
    29   14   83 1    
    30   15   16 1    
    31   15   84 1    
    32   15   85 1    
    33   16   17 1    
    34   17   18 1    
    35   17   86 1    
    36   17   87 1    
    37   18   19 1    
    38   18   37 1    
    39   18   88 1    
    40   19   20 am   BACKBONE|DICT|INTERRES
    41   19   89 1    
    42   20   21 2    
    43   20   22 1    
    44   22   23 1    
    45   22   24 1    
    46   22   90 1    
    47   23   91 1    
    48   23   92 1    
    49   23   93 1    
    50   24   25 am   BACKBONE|DICT|INTERRES
    51   24   94 1    
    52   25   26 2    
    53   25   27 1    
    54   27   28 1    
    55   27   29 1    
    56   27   95 1    
    57   28   96 1    
    58   28   97 1    
    59   28   98 1    
    60   29   30 am   BACKBONE|DICT|INTERRES
    61   29   99 1    
    62   30   31 2    
    63   30   32 1    
    64   32   33 1    
    65   32   34 1    
    66   32  100 1    
    67   33  101 1    
    68   33  102 1    
    69   33  103 1    
    70   34   35 am   BACKBONE|DICT|INTERRES
    71   34  104 1    
    72   35   36 2    
    73   37   38 2    
    74   37   39 am   BACKBONE|DICT|INTERRES
    75   39   40 1    
    76   39  105 1    
    77   40   41 1    
    78   40   42 1    
    79   40  106 1    
    80   41  107 1    
    81   41  108 1    
    82   41  109 1    
    83   42   43 2    
    84   42   44 am   BACKBONE|DICT|INTERRES
    85   44   45 1    
    86   44  110 1    
    87   45   46 1    
    88   45   47 1    
    89   45  111 1    
    90   46  112 1    
    91   46  113 1    
    92   46  114 1    
    93   47   48 2    
    94   47   49 am   BACKBONE|DICT|INTERRES
    95   49   50 1    
    96   49  115 1    
    97   50   51 1    
    98   50   52 1    
    99   50  116 1    
   100   51  117 1    
   101   51  118 1    
   102   51  119 1    
   103   52   53 2    
   104   52   54 am   BACKBONE|DICT|INTERRES
   105   54   55 1    
   106   54  120 1    
   107   55   56 1    
   108   55   57 1    
   109   55  121 1    
   110   56  122 1    
   111   56  123 1    
   112   56  124 1    
   113   57   58 2    
   114   57   59 am   BACKBONE|DICT|INTERRES
   115   59   60 1    
   116   59  125 1    
   117   60   61 1    
   118   60   62 1    
   119   60  126 1    
   120   61  127 1    
   121   61  128 1    
   122   61  129 1    
   123   62   63 2    
   124   62   64 am   BACKBONE|DICT|INTERRES
   125   64   65 1    
   126   64  130 1    
   127   65   66 1    
   128   65   69 1    
   129   65  131 1    
   130   66   67 am   BACKBONE|DICT|INTERRES
   131   66   68 2    
   132   67  132 1    
   133   67  133 1    
   134   69   70 1    
   135   69  134 1    
   136   69  135 1    
   137   70   71 1    
   138   71  136 1    
   139   71  137 1    
@<TRIPOS>SUBSTRUCTURE
     1 UNK         1 GROUP             0       ****    0 ROOT    
