@<TRIPOS>MOLECULE
3R137
137   139    1
SMALL
USER_CHARGES


@<TRIPOS>ATOM
      1 CA         26.0400   -2.9692   -0.6949 C.3       0 UNK        -0.2020 
      2 C          26.6771   -4.2884   -0.2634 C.2       0 UNK         0.4855 
      3 O          26.5066   -4.6822    0.8888 O.2       0 UNK        -0.5197 
      4 N          27.4226   -5.0035   -1.1184 N.am      1 UNK        -0.4892 
      5 CA         27.6904   -4.7308   -2.5369 C.3       1 UNK         0.0835 
      6 C6         28.7515   -5.6994   -3.1183 C.3       12 UNK        -0.0855 
      7 S7         30.3050   -5.7533   -2.1597 S.3       12 UNK        -0.2931 
      8 C8         31.4314   -4.7334   -3.1764 C.3       12 UNK         0.0378 
      9 C9         31.4059   -3.2245   -2.9142 C.ar      12 UNK        -0.0802 
     10 C10        32.2013   -2.4088   -3.7268 C.ar      12 UNK        -0.0944 
     11 C11        32.2783   -1.0318   -3.5037 C.ar      12 UNK        -0.0787 
     12 C12        31.5486   -0.4637   -2.4592 C.ar      12 UNK        -0.0862 
     13 C13        30.7194   -1.2521   -1.6586 C.ar      12 UNK        -0.0733 
     14 C14        30.6613   -2.6319   -1.8822 C.ar      12 UNK        -0.0832 
     15 C15        29.9079   -0.6180   -0.5365 C.3       12 UNK         0.0240 
     16 S16        28.2951    0.0062   -1.1167 S.3       12 UNK        -0.2522 
     17 C17        28.7591    1.5447   -1.9842 C.3       12 UNK        -0.0967 
     18 CA         28.3998    1.4908   -3.4929 C.3       5 UNK         0.0660 
     19 N          26.9463    1.5556   -3.6836 N.am      5 UNK        -0.4015 
     20 C          26.2703    1.1498   -4.7637 C.2       4 UNK         0.4946 
     21 O          26.7879    0.5998   -5.7417 O.2       4 UNK        -0.5353 
     22 CA         24.7777    1.4799   -4.7908 C.3       4 UNK         0.0277 
     23 CB         24.5027    2.6841   -5.7098 C.3       4 UNK        -0.1981 
     24 N          24.0613    0.3053   -5.2662 N.am      4 UNK        -0.4209 
     25 C          22.7994   -0.0112   -4.9528 C.2       3 UNK         0.4942 
     26 O          22.0552    0.7172   -4.2945 O.2       3 UNK        -0.5208 
     27 CA         22.2676   -1.3729   -5.4437 C.3       3 UNK         0.0250 
     28 CB         21.4077   -1.1841   -6.7046 C.3       3 UNK        -0.1990 
     29 N          23.3063   -2.3733   -5.7197 N.am      3 UNK        -0.4232 
     30 C          24.1739   -2.8646   -4.8227 C.2       2 UNK         0.4993 
     31 O          24.1832   -2.5307   -3.6361 O.2       2 UNK        -0.5286 
     32 CA         25.2104   -3.8744   -5.3552 C.3       2 UNK         0.0209 
     33 CB         25.7425   -3.4821   -6.7461 C.3       2 UNK        -0.1931 
     34 N          26.3524   -3.9933   -4.4462 N.am      2 UNK        -0.4546 
     35 C          26.4045   -4.8080   -3.3865 C.2       1 UNK         0.5154 
     36 O          25.5182   -5.6154   -3.0937 O.2       1 UNK        -0.5181 
     37 C          29.0875    2.6092   -4.3100 C.2       5 UNK         0.5014 
     38 O          29.7277    3.4947   -3.7391 O.2       5 UNK        -0.5248 
     39 N          28.8988    2.5671   -5.6326 N.am      6 UNK        -0.4434 
     40 CA         29.3923    3.5254   -6.6130 C.3       6 UNK         0.0363 
     41 CB         28.5833    4.8414   -6.5359 C.3       6 UNK        -0.1936 
     42 C          29.3721    2.8459   -7.9905 C.2       6 UNK         0.5081 
     43 O          30.0023    1.8005   -8.1548 O.2       6 UNK        -0.5248 
     44 N          28.6540    3.4314   -8.9582 N.am      7 UNK        -0.4718 
     45 CA         28.5765    2.9718  -10.3482 C.3       7 UNK         0.0273 
     46 CB         27.8281    4.0184  -11.1891 C.3       7 UNK        -0.1935 
     47 C          27.9366    1.5843  -10.5245 C.2       7 UNK         0.5018 
     48 O          28.3639    0.8437  -11.4093 O.2       7 UNK        -0.5186 
     49 N          26.9483    1.2467   -9.6817 N.am      8 UNK        -0.4240 
     50 CA         26.2664   -0.0532   -9.6968 C.3       8 UNK         0.0235 
     51 CB         24.9895    0.0085   -8.8437 C.3       8 UNK        -0.2000 
     52 C          27.1838   -1.1992   -9.2401 C.2       8 UNK         0.4941 
     53 O          27.2118   -2.2478   -9.8840 O.2       8 UNK        -0.5273 
     54 N          27.9405   -0.9632   -8.1587 N.am      9 UNK        -0.4262 
     55 CA         28.9799   -1.8658   -7.6516 C.3       9 UNK         0.0264 
     56 CB         29.2704   -1.5143   -6.1839 C.3       9 UNK        -0.1955 
     57 C          30.2721   -1.8498   -8.4945 C.2       9 UNK         0.5031 
     58 O          31.1105   -2.7340   -8.3142 O.2       9 UNK        -0.5390 
     59 N          30.3989   -0.8634   -9.3949 N.am      10 UNK        -0.4204 
     60 CA         31.5117   -0.6016  -10.3117 C.3       10 UNK         0.0237 
     61 CB         31.6747   -1.7478  -11.3330 C.3       10 UNK        -0.1985 
     62 C          32.8106   -0.2550   -9.5638 C.2       10 UNK         0.4970 
     63 O          33.8705   -0.8016   -9.8762 O.2       10 UNK        -0.4914 
     64 N          32.6986    0.6508   -8.5840 N.am      11 UNK        -0.4285 
     65 CA         33.8130    1.0998   -7.7317 C.3       11 UNK         0.1007 
     66 C          34.8743    1.9854   -8.4477 C.2       11 UNK         0.5703 
     67 N          34.6073    2.5197   -9.6339 N.am      11 UNK        -0.7361 
     68 O          35.9640    2.1865   -7.9166 O.2       11 UNK        -0.4986 
     69 C69        33.3144    1.7906   -6.4363 C.3       12 UNK        -0.0947 
     70 S70        32.0884    0.7996   -5.5281 S.3       12 UNK        -0.2240 
     71 C71        33.1377   -0.1454   -4.3898 C.3       12 UNK         0.0194 
     72 H72        25.9793   -2.2865    0.1524 H         1 UNK         0.0906 
     73 H73        26.5994   -2.4598   -1.4766 H         1 UNK         0.0906 
     74 H74        25.0272   -3.1443   -1.0571 H         1 UNK         0.0906 
     75 H75        27.8267   -5.8661   -0.7828 H         1 UNK         0.3140 
     76 H76        28.0890   -3.7181   -2.6126 H         1 UNK         0.1085 
     77 H77        28.9773   -5.4417   -4.1550 H         1 UNK         0.0836 
     78 H78        28.3569   -6.7175   -3.1475 H         1 UNK         0.0836 
     79 H79        31.2430   -4.9248   -4.2338 H         1 UNK         0.0731 
     80 H80        32.4466   -5.0842   -2.9855 H         1 UNK         0.0731 
     81 H81        32.7737   -2.8500   -4.5318 H         1 UNK         0.1312 
     82 H82        31.6262    0.5993   -2.2851 H         1 UNK         0.1406 
     83 H83        30.0433   -3.2352   -1.2331 H         1 UNK         0.1631 
     84 H84        30.4714    0.1908   -0.0686 H         1 UNK         0.0717 
     85 H85        29.7301   -1.3522    0.2507 H         1 UNK         0.0717 
     86 H86        28.2540    2.3822   -1.4994 H         1 UNK         0.0934 
     87 H87        29.8211    1.7331   -1.8346 H         1 UNK         0.0934 
     88 H88        28.7666    0.5429   -3.8937 H         1 UNK         0.0739 
     89 H89        26.4361    2.0155   -2.9440 H         1 UNK         0.3093 
     90 H90        24.4472    1.7159   -3.7766 H         1 UNK         0.0818 
     91 H91        25.0449    3.5675   -5.3700 H         1 UNK         0.0819 
     92 H92        24.8100    2.4878   -6.7374 H         1 UNK         0.0819 
     93 H93        23.4431    2.9397   -5.7219 H         1 UNK         0.0819 
     94 H94        24.6282   -0.3585   -5.7753 H         1 UNK         0.3041 
     95 H95        21.6316   -1.7728   -4.6510 H         1 UNK         0.0784 
     96 H96        20.6027   -0.4698   -6.5249 H         1 UNK         0.0793 
     97 H97        21.9959   -0.8065   -7.5421 H         1 UNK         0.0793 
     98 H98        20.9422   -2.1202   -7.0137 H         1 UNK         0.0793 
     99 H99        23.3587   -2.7097   -6.6702 H         1 UNK         0.3024 
    100 H100       24.7111   -4.8430   -5.4359 H         1 UNK         0.1171 
    101 H101       26.1243   -2.4617   -6.7466 H         1 UNK         0.0786 
    102 H102       26.5494   -4.1428   -7.0637 H         1 UNK         0.0786 
    103 H103       24.9693   -3.5476   -7.5122 H         1 UNK         0.0786 
    104 H104       27.1100   -3.3457   -4.6019 H         1 UNK         0.2977 
    105 H105       28.3530    1.7944   -6.0024 H         1 UNK         0.3127 
    106 H106       30.4382    3.7433   -6.3882 H         1 UNK         0.0770 
    107 H107       28.9379    5.5708   -7.2654 H         1 UNK         0.0814 
    108 H108       28.6858    5.3093   -5.5568 H         1 UNK         0.0814 
    109 H109       27.5187    4.6774   -6.7077 H         1 UNK         0.0814 
    110 H110       28.1633    4.2860   -8.7368 H         1 UNK         0.2983 
    111 H111       29.5992    2.9021  -10.7258 H         1 UNK         0.0947 
    112 H112       27.7758    3.7135  -12.2354 H         1 UNK         0.0806 
    113 H113       28.3321    4.9847  -11.1616 H         1 UNK         0.0806 
    114 H114       26.8046    4.1621  -10.8404 H         1 UNK         0.0806 
    115 H115       26.6599    1.9169   -8.9842 H         1 UNK         0.3000 
    116 H116       25.9697   -0.2634  -10.7270 H         1 UNK         0.0850 
    117 H117       24.2921    0.7541   -9.2257 H         1 UNK         0.0810 
    118 H118       25.2106    0.2577   -7.8083 H         1 UNK         0.0810 
    119 H119       24.4707   -0.9511   -8.8467 H         1 UNK         0.0810 
    120 H120       27.7987   -0.1039   -7.6434 H         1 UNK         0.3040 
    121 H121       28.5978   -2.8877   -7.6846 H         1 UNK         0.0766 
    122 H122       30.0697   -2.1347   -5.7767 H         1 UNK         0.0812 
    123 H123       28.3920   -1.6621   -5.5569 H         1 UNK         0.0812 
    124 H124       29.5778   -0.4746   -6.0811 H         1 UNK         0.0812 
    125 H125       29.6728   -0.1592   -9.3949 H         1 UNK         0.3205 
    126 H126       31.2360    0.2944  -10.8698 H         1 UNK         0.0754 
    127 H127       32.4205   -1.4947  -12.0875 H         1 UNK         0.0769 
    128 H128       30.7389   -1.9455  -11.8562 H         1 UNK         0.0769 
    129 H129       31.9959   -2.6749  -10.8573 H         1 UNK         0.0769 
    130 H130       31.7842    1.0405   -8.3705 H         1 UNK         0.2981 
    131 H131       34.3474    0.1994   -7.4227 H         1 UNK         0.0541 
    132 H132       33.7167    2.3614  -10.0761 H         1 UNK         0.3459 
    133 H133       35.3049    3.0874  -10.0883 H         1 UNK         0.3459 
    134 H134       32.8473    2.7472   -6.6771 H         1 UNK         0.0612 
    135 H135       34.1482    2.0175   -5.7693 H         1 UNK         0.0612 
    136 H136       33.7210    0.5399   -3.7731 H         1 UNK         0.0624 
    137 H137       33.8496   -0.7410   -4.9632 H         1 UNK         0.0624 
@<TRIPOS>BOND
     1    1    2 1    
     2    1   72 1    
     3    1   73 1    
     4    1   74 1    
     5    2    3 2    
     6    2    4 am   BACKBONE|DICT|INTERRES
     7    4    5 1    
     8    4   75 1    
     9    5    6 1    
    10    5   35 1    
    11    5   76 1    
    12    6    7 1    
    13    6   77 1    
    14    6   78 1    
    15    7    8 1    
    16    8    9 1    
    17    8   79 1    
    18    8   80 1    
    19    9   10 ar   
    20    9   14 ar   
    21   10   11 ar   
    22   10   81 1    
    23   11   12 ar   
    24   11   71 1    
    25   12   13 ar   
    26   12   82 1    
    27   13   14 ar   
    28   13   15 1    
    29   14   83 1    
    30   15   16 1    
    31   15   84 1    
    32   15   85 1    
    33   16   17 1    
    34   17   18 1    
    35   17   86 1    
    36   17   87 1    
    37   18   19 1    
    38   18   37 1    
    39   18   88 1    
    40   19   20 am   BACKBONE|DICT|INTERRES
    41   19   89 1    
    42   20   21 2    
    43   20   22 1    
    44   22   23 1    
    45   22   24 1    
    46   22   90 1    
    47   23   91 1    
    48   23   92 1    
    49   23   93 1    
    50   24   25 am   BACKBONE|DICT|INTERRES
    51   24   94 1    
    52   25   26 2    
    53   25   27 1    
    54   27   28 1    
    55   27   29 1    
    56   27   95 1    
    57   28   96 1    
    58   28   97 1    
    59   28   98 1    
    60   29   30 am   BACKBONE|DICT|INTERRES
    61   29   99 1    
    62   30   31 2    
    63   30   32 1    
    64   32   33 1    
    65   32   34 1    
    66   32  100 1    
    67   33  101 1    
    68   33  102 1    
    69   33  103 1    
    70   34   35 am   BACKBONE|DICT|INTERRES
    71   34  104 1    
    72   35   36 2    
    73   37   38 2    
    74   37   39 am   BACKBONE|DICT|INTERRES
    75   39   40 1    
    76   39  105 1    
    77   40   41 1    
    78   40   42 1    
    79   40  106 1    
    80   41  107 1    
    81   41  108 1    
    82   41  109 1    
    83   42   43 2    
    84   42   44 am   BACKBONE|DICT|INTERRES
    85   44   45 1    
    86   44  110 1    
    87   45   46 1    
    88   45   47 1    
    89   45  111 1    
    90   46  112 1    
    91   46  113 1    
    92   46  114 1    
    93   47   48 2    
    94   47   49 am   BACKBONE|DICT|INTERRES
    95   49   50 1    
    96   49  115 1    
    97   50   51 1    
    98   50   52 1    
    99   50  116 1    
   100   51  117 1    
   101   51  118 1    
   102   51  119 1    
   103   52   53 2    
   104   52   54 am   BACKBONE|DICT|INTERRES
   105   54   55 1    
   106   54  120 1    
   107   55   56 1    
   108   55   57 1    
   109   55  121 1    
   110   56  122 1    
   111   56  123 1    
   112   56  124 1    
   113   57   58 2    
   114   57   59 am   BACKBONE|DICT|INTERRES
   115   59   60 1    
   116   59  125 1    
   117   60   61 1    
   118   60   62 1    
   119   60  126 1    
   120   61  127 1    
   121   61  128 1    
   122   61  129 1    
   123   62   63 2    
   124   62   64 am   BACKBONE|DICT|INTERRES
   125   64   65 1    
   126   64  130 1    
   127   65   66 1    
   128   65   69 1    
   129   65  131 1    
   130   66   67 am   BACKBONE|DICT|INTERRES
   131   66   68 2    
   132   67  132 1    
   133   67  133 1    
   134   69   70 1    
   135   69  134 1    
   136   69  135 1    
   137   70   71 1    
   138   71  136 1    
   139   71  137 1    
@<TRIPOS>SUBSTRUCTURE
     1 UNK         1 GROUP             0       ****    0 ROOT    
