@<TRIPOS>MOLECULE
3R137
137   139    1
SMALL
USER_CHARGES


@<TRIPOS>ATOM
      1 CA         23.6673    0.6308   -6.5205 C.3       0 UNK        -0.2020 
      2 C          24.7002   -0.3875   -6.0644 C.2       0 UNK         0.4855 
      3 O          25.5875   -0.0448   -5.2864 O.2       0 UNK        -0.5197 
      4 N          24.6021   -1.6308   -6.5523 N.am      1 UNK        -0.4892 
      5 CA         25.4771   -2.7598   -6.2096 C.3       1 UNK         0.0835 
      6 C6         26.9530   -2.5554   -6.6668 C.3       12 UNK        -0.0855 
      7 S7         27.6482   -4.0458   -7.4548 S.3       12 UNK        -0.2931 
      8 C8         28.3053   -4.9798   -6.0297 C.3       12 UNK         0.0378 
      9 C9         29.4625   -4.2840   -5.3214 C.ar      12 UNK        -0.0802 
     10 C10        30.5555   -3.8037   -6.0486 C.ar      12 UNK        -0.0944 
     11 C11        31.6282   -3.1715   -5.4133 C.ar      12 UNK        -0.0787 
     12 C12        31.6154   -3.0732   -4.0165 C.ar      12 UNK        -0.0862 
     13 C13        30.5207   -3.5256   -3.2751 C.ar      12 UNK        -0.0733 
     14 C14        29.4489   -4.1359   -3.9314 C.ar      12 UNK        -0.0832 
     15 C15        30.4932   -3.3231   -1.7658 C.3       12 UNK         0.0240 
     16 S16        29.3300   -2.0127   -1.2539 S.3       12 UNK        -0.2522 
     17 C17        29.7760   -0.6140   -2.3456 C.3       12 UNK        -0.0967 
     18 CA         28.6805   -0.3838   -3.4244 C.3       5 UNK         0.0660 
     19 N          27.3959    0.0328   -2.8403 N.am      5 UNK        -0.4015 
     20 C          27.1428    1.1999   -2.2258 C.2       4 UNK         0.4946 
     21 O          27.9733    2.0979   -2.0778 O.2       4 UNK        -0.5353 
     22 CA         25.7272    1.4148   -1.6645 C.3       4 UNK         0.0277 
     23 CB         24.8280    2.1422   -2.6772 C.3       4 UNK        -0.1981 
     24 N          25.0778    0.1781   -1.2271 N.am      4 UNK        -0.4209 
     25 C          25.3752   -0.4822   -0.1019 C.2       3 UNK         0.4942 
     26 O          26.2511   -0.1237    0.6861 O.2       3 UNK        -0.5208 
     27 CA         24.5467   -1.7382    0.2288 C.3       3 UNK         0.0250 
     28 CB         23.1783   -1.3526    0.8252 C.3       3 UNK        -0.1990 
     29 N          24.3963   -2.7083   -0.8666 N.am      3 UNK        -0.4232 
     30 C          23.7745   -2.5624   -2.0448 C.2       2 UNK         0.4993 
     31 O          23.2334   -1.5208   -2.4251 O.2       2 UNK        -0.5286 
     32 CA         23.7303   -3.8055   -2.9470 C.3       2 UNK         0.0209 
     33 CB         22.3298   -4.4395   -2.9244 C.3       2 UNK        -0.1931 
     34 N          24.0885   -3.4721   -4.3254 N.am      2 UNK        -0.4546 
     35 C          25.3248   -3.1375   -4.7182 C.2       1 UNK         0.5154 
     36 O          26.2870   -3.0976   -3.9490 O.2       1 UNK        -0.5181 
     37 C          29.1215    0.5533   -4.5753 C.2       5 UNK         0.5014 
     38 O          30.3000    0.8983   -4.6898 O.2       5 UNK        -0.5248 
     39 N          28.1508    0.9708   -5.3953 N.am      6 UNK        -0.4434 
     40 CA         28.2950    1.9433   -6.4704 C.3       6 UNK         0.0363 
     41 CB         27.3884    3.1521   -6.1572 C.3       6 UNK        -0.1936 
     42 C          27.9972    1.2548   -7.8125 C.2       6 UNK         0.5081 
     43 O          28.7149    0.3204   -8.1774 O.2       6 UNK        -0.5248 
     44 N          26.9729    1.7361   -8.5335 N.am      7 UNK        -0.4718 
     45 CA         26.5439    1.3023   -9.8697 C.3       7 UNK         0.0273 
     46 CB         25.9088   -0.1062   -9.8042 C.3       7 UNK        -0.1935 
     47 C          27.6749    1.4300  -10.9123 C.2       7 UNK         0.5018 
     48 O          28.4613    2.3771  -10.8415 O.2       7 UNK        -0.5186 
     49 N          27.7411    0.4846  -11.8588 N.am      8 UNK        -0.4240 
     50 CA         28.8028    0.3893  -12.8636 C.3       8 UNK         0.0235 
     51 CB         28.3267   -0.5137  -14.0138 C.3       8 UNK        -0.2000 
     52 C          30.1356   -0.1276  -12.2902 C.2       8 UNK         0.4941 
     53 O          31.1762    0.1015  -12.9079 O.2       8 UNK        -0.5273 
     54 N          30.0873   -0.8232  -11.1433 N.am      9 UNK        -0.4262 
     55 CA         31.2590   -1.3556  -10.4455 C.3       9 UNK         0.0264 
     56 CB         30.8126   -2.4160   -9.4300 C.3       9 UNK        -0.1955 
     57 C          32.0830   -0.2417   -9.7776 C.2       9 UNK         0.5031 
     58 O          33.3058   -0.2312   -9.9232 O.2       9 UNK        -0.5390 
     59 N          31.3864    0.6921   -9.1113 N.am      10 UNK        -0.4204 
     60 CA         31.8816    1.9722   -8.5932 C.3       10 UNK         0.0237 
     61 CB         32.1950    2.9276   -9.7647 C.3       10 UNK        -0.1985 
     62 C          33.0476    1.8437   -7.5931 C.2       10 UNK         0.4970 
     63 O          34.0623    2.5285   -7.7419 O.2       10 UNK        -0.4914 
     64 N          32.8779    0.9840   -6.5807 N.am      11 UNK        -0.4285 
     65 CA         33.7997    0.8804   -5.4379 C.3       11 UNK         0.1007 
     66 C          33.7194    2.1234   -4.5088 C.2       11 UNK         0.5703 
     67 N          32.5262    2.6033   -4.1807 N.am      11 UNK        -0.7361 
     68 O          34.7449    2.6548   -4.0895 O.2       11 UNK        -0.4986 
     69 C69        33.5649   -0.4171   -4.6267 C.3       12 UNK        -0.0947 
     70 S70        34.2107   -1.9147   -5.4448 S.3       12 UNK        -0.2240 
     71 C71        32.7403   -2.5897   -6.2920 C.3       12 UNK         0.0194 
     72 H72        24.1616    1.4777   -6.9951 H         1 UNK         0.0906 
     73 H73        23.1045    1.0003   -5.6638 H         1 UNK         0.0906 
     74 H74        22.9613    0.2063   -7.2339 H         1 UNK         0.0906 
     75 H75        23.8472   -1.8491   -7.1884 H         1 UNK         0.3140 
     76 H76        25.0669   -3.6038   -6.7671 H         1 UNK         0.1085 
     77 H77        27.6075   -2.2031   -5.8701 H         1 UNK         0.0836 
     78 H78        27.0024   -1.7709   -7.4217 H         1 UNK         0.0836 
     79 H79        28.6547   -5.9501   -6.3848 H         1 UNK         0.0731 
     80 H80        27.4905   -5.1871   -5.3351 H         1 UNK         0.0731 
     81 H81        30.5591   -3.9153   -7.1227 H         1 UNK         0.1312 
     82 H82        32.4380   -2.6141   -3.4898 H         1 UNK         0.1406 
     83 H83        28.5988   -4.4808   -3.3578 H         1 UNK         0.1631 
     84 H84        31.4876   -3.0751   -1.3915 H         1 UNK         0.0717 
     85 H85        30.2097   -4.2573   -1.2793 H         1 UNK         0.0717 
     86 H86        29.9134    0.2795   -1.7352 H         1 UNK         0.0934 
     87 H87        30.7483   -0.8040   -2.7972 H         1 UNK         0.0934 
     88 H88        28.4919   -1.3438   -3.9045 H         1 UNK         0.0739 
     89 H89        26.6363   -0.6241   -2.9560 H         1 UNK         0.3093 
     90 H90        25.8300    2.0653   -0.7929 H         1 UNK         0.0818 
     91 H91        24.5741    1.5074   -3.5241 H         1 UNK         0.0819 
     92 H92        23.8952    2.4639   -2.2142 H         1 UNK         0.0819 
     93 H93        25.3189    3.0334   -3.0709 H         1 UNK         0.0819 
     94 H94        24.3429   -0.2109   -1.8165 H         1 UNK         0.3041 
     95 H95        25.0973   -2.2689    1.0076 H         1 UNK         0.0784 
     96 H96        23.3012   -0.7017    1.6919 H         1 UNK         0.0793 
     97 H97        22.5538   -0.8200    0.1073 H         1 UNK         0.0793 
     98 H98        22.6288   -2.2333    1.1578 H         1 UNK         0.0793 
     99 H99        24.8338   -3.6016   -0.6858 H         1 UNK         0.3024 
    100 H100       24.4489   -4.5419   -2.5793 H         1 UNK         0.1171 
    101 H101       22.2927   -5.3442   -3.5317 H         1 UNK         0.0786 
    102 H102       22.0450   -4.7200   -1.9093 H         1 UNK         0.0786 
    103 H103       21.5691   -3.7522   -3.2973 H         1 UNK         0.0786 
    104 H104       23.3323   -3.4169   -4.9918 H         1 UNK         0.2977 
    105 H105       27.2117    0.5862   -5.2736 H         1 UNK         0.3127 
    106 H106       29.3227    2.3040   -6.5209 H         1 UNK         0.0770 
    107 H107       26.3385    2.8674   -6.0729 H         1 UNK         0.0814 
    108 H108       27.4737    3.9251   -6.9221 H         1 UNK         0.0814 
    109 H109       27.6746    3.6121   -5.2109 H         1 UNK         0.0814 
    110 H110       26.4827    2.5374   -8.1626 H         1 UNK         0.2983 
    111 H111       25.7677    2.0018  -10.1842 H         1 UNK         0.0947 
    112 H112       25.4195   -0.3697  -10.7425 H         1 UNK         0.0806 
    113 H113       25.1410   -0.1528   -9.0342 H         1 UNK         0.0806 
    114 H114       26.6461   -0.8785   -9.5833 H         1 UNK         0.0806 
    115 H115       27.0463   -0.2483  -11.8588 H         1 UNK         0.3000 
    116 H116       28.9870    1.3876  -13.2671 H         1 UNK         0.0850 
    117 H117       29.0843   -0.5805  -14.7960 H         1 UNK         0.0810 
    118 H118       27.4203   -0.1230  -14.4769 H         1 UNK         0.0810 
    119 H119       28.1208   -1.5293  -13.6731 H         1 UNK         0.0810 
    120 H120       29.1935   -0.9436  -10.6897 H         1 UNK         0.3040 
    121 H121       31.8961   -1.8468  -11.1844 H         1 UNK         0.0766 
    122 H122       31.6798   -2.9095   -8.9926 H         1 UNK         0.0812 
    123 H123       30.2091   -3.1917   -9.9016 H         1 UNK         0.0812 
    124 H124       30.2251   -1.9841   -8.6182 H         1 UNK         0.0812 
    125 H125       30.3884    0.5309   -8.9808 H         1 UNK         0.3205 
    126 H126       31.0572    2.4142   -8.0353 H         1 UNK         0.0754 
    127 H127       33.0284    2.5666  -10.3687 H         1 UNK         0.0769 
    128 H128       32.4596    3.9216   -9.4021 H         1 UNK         0.0769 
    129 H129       31.3318    3.0424  -10.4211 H         1 UNK         0.0769 
    130 H130       31.9979    0.4978   -6.4876 H         1 UNK         0.2981 
    131 H131       34.8184    0.8483   -5.8300 H         1 UNK         0.0541 
    132 H132       31.6846    2.1007   -4.4549 H         1 UNK         0.3459 
    133 H133       32.4613    3.4100   -3.5818 H         1 UNK         0.3459 
    134 H134       32.5046   -0.5298   -4.4075 H         1 UNK         0.0612 
    135 H135       34.0668   -0.3631   -3.6586 H         1 UNK         0.0612 
    136 H136       33.0866   -3.3691   -6.9721 H         1 UNK         0.0624 
    137 H137       32.3162   -1.8019   -6.9145 H         1 UNK         0.0624 
@<TRIPOS>BOND
     1    1    2 1    
     2    1   72 1    
     3    1   73 1    
     4    1   74 1    
     5    2    3 2    
     6    2    4 am   BACKBONE|DICT|INTERRES
     7    4    5 1    
     8    4   75 1    
     9    5    6 1    
    10    5   35 1    
    11    5   76 1    
    12    6    7 1    
    13    6   77 1    
    14    6   78 1    
    15    7    8 1    
    16    8    9 1    
    17    8   79 1    
    18    8   80 1    
    19    9   10 ar   
    20    9   14 ar   
    21   10   11 ar   
    22   10   81 1    
    23   11   12 ar   
    24   11   71 1    
    25   12   13 ar   
    26   12   82 1    
    27   13   14 ar   
    28   13   15 1    
    29   14   83 1    
    30   15   16 1    
    31   15   84 1    
    32   15   85 1    
    33   16   17 1    
    34   17   18 1    
    35   17   86 1    
    36   17   87 1    
    37   18   19 1    
    38   18   37 1    
    39   18   88 1    
    40   19   20 am   BACKBONE|DICT|INTERRES
    41   19   89 1    
    42   20   21 2    
    43   20   22 1    
    44   22   23 1    
    45   22   24 1    
    46   22   90 1    
    47   23   91 1    
    48   23   92 1    
    49   23   93 1    
    50   24   25 am   BACKBONE|DICT|INTERRES
    51   24   94 1    
    52   25   26 2    
    53   25   27 1    
    54   27   28 1    
    55   27   29 1    
    56   27   95 1    
    57   28   96 1    
    58   28   97 1    
    59   28   98 1    
    60   29   30 am   BACKBONE|DICT|INTERRES
    61   29   99 1    
    62   30   31 2    
    63   30   32 1    
    64   32   33 1    
    65   32   34 1    
    66   32  100 1    
    67   33  101 1    
    68   33  102 1    
    69   33  103 1    
    70   34   35 am   BACKBONE|DICT|INTERRES
    71   34  104 1    
    72   35   36 2    
    73   37   38 2    
    74   37   39 am   BACKBONE|DICT|INTERRES
    75   39   40 1    
    76   39  105 1    
    77   40   41 1    
    78   40   42 1    
    79   40  106 1    
    80   41  107 1    
    81   41  108 1    
    82   41  109 1    
    83   42   43 2    
    84   42   44 am   BACKBONE|DICT|INTERRES
    85   44   45 1    
    86   44  110 1    
    87   45   46 1    
    88   45   47 1    
    89   45  111 1    
    90   46  112 1    
    91   46  113 1    
    92   46  114 1    
    93   47   48 2    
    94   47   49 am   BACKBONE|DICT|INTERRES
    95   49   50 1    
    96   49  115 1    
    97   50   51 1    
    98   50   52 1    
    99   50  116 1    
   100   51  117 1    
   101   51  118 1    
   102   51  119 1    
   103   52   53 2    
   104   52   54 am   BACKBONE|DICT|INTERRES
   105   54   55 1    
   106   54  120 1    
   107   55   56 1    
   108   55   57 1    
   109   55  121 1    
   110   56  122 1    
   111   56  123 1    
   112   56  124 1    
   113   57   58 2    
   114   57   59 am   BACKBONE|DICT|INTERRES
   115   59   60 1    
   116   59  125 1    
   117   60   61 1    
   118   60   62 1    
   119   60  126 1    
   120   61  127 1    
   121   61  128 1    
   122   61  129 1    
   123   62   63 2    
   124   62   64 am   BACKBONE|DICT|INTERRES
   125   64   65 1    
   126   64  130 1    
   127   65   66 1    
   128   65   69 1    
   129   65  131 1    
   130   66   67 am   BACKBONE|DICT|INTERRES
   131   66   68 2    
   132   67  132 1    
   133   67  133 1    
   134   69   70 1    
   135   69  134 1    
   136   69  135 1    
   137   70   71 1    
   138   71  136 1    
   139   71  137 1    
@<TRIPOS>SUBSTRUCTURE
     1 UNK         1 GROUP             0       ****    0 ROOT    
