@<TRIPOS>MOLECULE
3R137
137   139    1
SMALL
USER_CHARGES


@<TRIPOS>ATOM
      1 CA         23.7621   -6.2057   -2.8625 C.3       0 UNK        -0.2020 
      2 C          24.5971   -4.9485   -2.6807 C.2       0 UNK         0.4855 
      3 O          24.4900   -4.0281   -3.4896 O.2       0 UNK        -0.5197 
      4 N          25.4067   -4.8955   -1.6135 N.am      1 UNK        -0.4892 
      5 CA         26.3642   -3.8302   -1.2638 C.3       1 UNK         0.0835 
      6 C6         27.6489   -3.8196   -2.1365 C.3       12 UNK        -0.0855 
      7 S7         28.3943   -5.4541   -2.4803 S.3       12 UNK        -0.2931 
      8 C8         30.1828   -5.1492   -2.2690 C.3       12 UNK         0.0378 
      9 C9         30.6514   -3.8684   -2.9505 C.ar      12 UNK        -0.0802 
     10 C10        30.7500   -3.7887   -4.3429 C.ar      12 UNK        -0.0944 
     11 C11        31.1443   -2.5954   -4.9596 C.ar      12 UNK        -0.0787 
     12 C12        31.4454   -1.4796   -4.1706 C.ar      12 UNK        -0.0862 
     13 C13        31.3463   -1.5482   -2.7775 C.ar      12 UNK        -0.0733 
     14 C14        30.9656   -2.7493   -2.1758 C.ar      12 UNK        -0.0832 
     15 C15        31.6307   -0.3314   -1.9052 C.3       12 UNK         0.0240 
     16 S16        30.5039    1.0757   -2.2002 S.3       12 UNK        -0.2522 
     17 C17        28.8566    0.3161   -2.4550 C.3       12 UNK        -0.0967 
     18 CA         28.4243    0.4171   -3.9413 C.3       5 UNK         0.0660 
     19 N          27.4976   -0.6476   -4.3502 N.am      5 UNK        -0.4015 
     20 C          27.3611   -1.0250   -5.6328 C.2       4 UNK         0.4946 
     21 O          28.0416   -0.5623   -6.5458 O.2       4 UNK        -0.5353 
     22 CA         26.2542   -2.0222   -6.0053 C.3       4 UNK         0.0277 
     23 CB         26.7634   -3.4722   -6.0599 C.3       4 UNK        -0.1981 
     24 N          25.0543   -1.9197   -5.1757 N.am      4 UNK        -0.4209 
     25 C          24.2130   -0.8772   -5.2153 C.2       3 UNK         0.4942 
     26 O          24.4254    0.1390   -5.8766 O.2       3 UNK        -0.5208 
     27 CA         22.9309   -0.9782   -4.3809 C.3       3 UNK         0.0250 
     28 CB         21.9540   -1.9901   -5.0031 C.3       3 UNK        -0.1990 
     29 N          23.2341   -1.3722   -3.0065 N.am      3 UNK        -0.4232 
     30 C          23.3095   -0.5242   -1.9715 C.2       2 UNK         0.4993 
     31 O          23.0864    0.6836   -2.0578 O.2       2 UNK        -0.5286 
     32 CA         23.7004   -1.1097   -0.6000 C.3       2 UNK         0.0209 
     33 CB         22.4446   -1.3713    0.2477 C.3       2 UNK        -0.1931 
     34 N          24.4966   -2.3400   -0.6707 N.am      2 UNK        -0.4546 
     35 C          25.7179   -2.4241   -1.2162 C.2       1 UNK         0.5154 
     36 O          26.2964   -1.4580   -1.7206 O.2       1 UNK        -0.5181 
     37 C          27.8844    1.8207   -4.2945 C.2       5 UNK         0.5014 
     38 O          28.6814    2.7186   -4.5690 O.2       5 UNK        -0.5248 
     39 N          26.5524    1.9914   -4.3106 N.am      6 UNK        -0.4434 
     40 CA         25.8959    3.2311   -4.7361 C.3       6 UNK         0.0363 
     41 CB         24.4218    3.2284   -4.3000 C.3       6 UNK        -0.1936 
     42 C          26.0318    3.4601   -6.2513 C.2       6 UNK         0.5081 
     43 O          26.2824    4.5901   -6.6713 O.2       6 UNK        -0.5248 
     44 N          25.8968    2.3832   -7.0388 N.am      7 UNK        -0.4718 
     45 CA         26.1723    2.3701   -8.4778 C.3       7 UNK         0.0273 
     46 CB         25.6048    1.0813   -9.0941 C.3       7 UNK        -0.1935 
     47 C          27.6743    2.5020   -8.7878 C.2       7 UNK         0.5018 
     48 O          28.0405    3.2310   -9.7113 O.2       7 UNK        -0.5186 
     49 N          28.5040    1.7941   -8.0077 N.am      8 UNK        -0.4240 
     50 CA         29.9620    1.6687   -8.0742 C.3       8 UNK         0.0235 
     51 CB         30.6768    3.0201   -7.8771 C.3       8 UNK        -0.2000 
     52 C          30.4349    0.9306   -9.3337 C.2       8 UNK         0.4941 
     53 O          30.9532   -0.1803   -9.2190 O.2       8 UNK        -0.5273 
     54 N          30.2475    1.5523  -10.5069 N.am      9 UNK        -0.4262 
     55 CA         30.6462    1.0765  -11.8360 C.3       9 UNK         0.0264 
     56 CB         29.6970   -0.0517  -12.3011 C.3       9 UNK        -0.1955 
     57 C          32.1414    0.7017  -11.8705 C.2       9 UNK         0.5031 
     58 O          32.9853    1.5911  -11.7417 O.2       9 UNK        -0.5390 
     59 N          32.4434   -0.5991  -11.9844 N.am      10 UNK        -0.4204 
     60 CA         33.7930   -1.1680  -11.9329 C.3       10 UNK         0.0237 
     61 CB         33.7179   -2.6704  -12.2506 C.3       10 UNK        -0.1985 
     62 C          34.5294   -0.9377  -10.5983 C.2       10 UNK         0.4970 
     63 O          35.7612   -0.9378  -10.5976 O.2       10 UNK        -0.4914 
     64 N          33.7862   -0.7350   -9.5012 N.am      11 UNK        -0.4285 
     65 CA         34.3348   -0.3718   -8.1851 C.3       11 UNK         0.1007 
     66 C          34.7251    1.1315   -8.0634 C.2       11 UNK         0.5703 
     67 N          34.4286    1.9888   -9.0356 N.am      11 UNK        -0.7361 
     68 O          35.3214    1.5284   -7.0653 O.2       11 UNK        -0.4986 
     69 C69        33.4072   -0.8016   -7.0155 C.3       12 UNK        -0.0947 
     70 S70        32.9328   -2.5648   -7.0802 S.3       12 UNK        -0.2240 
     71 C71        31.2146   -2.5072   -6.4780 C.3       12 UNK         0.0194 
     72 H72        22.7019   -5.9544   -2.8619 H         1 UNK         0.0906 
     73 H73        24.0004   -6.6754   -3.8163 H         1 UNK         0.0906 
     74 H74        23.9405   -6.9337   -2.0715 H         1 UNK         0.0906 
     75 H75        25.4270   -5.6922   -0.9916 H         1 UNK         0.3140 
     76 H76        26.6763   -4.0414   -0.2396 H         1 UNK         0.1085 
     77 H77        28.3845   -3.1934   -1.6335 H         1 UNK         0.0836 
     78 H78        27.4663   -3.3375   -3.0939 H         1 UNK         0.0836 
     79 H79        30.7365   -5.9978   -2.6731 H         1 UNK         0.0731 
     80 H80        30.4087   -5.1214   -1.2018 H         1 UNK         0.0731 
     81 H81        30.5017   -4.6525   -4.9445 H         1 UNK         0.1312 
     82 H82        31.7365   -0.5501   -4.6393 H         1 UNK         0.1406 
     83 H83        30.8856   -2.8065   -1.0985 H         1 UNK         0.1631 
     84 H84        32.6557   -0.0015   -2.0787 H         1 UNK         0.0717 
     85 H85        31.5735   -0.5944   -0.8478 H         1 UNK         0.0717 
     86 H86        28.8901   -0.7251   -2.1353 H         1 UNK         0.0934 
     87 H87        28.1303    0.7945   -1.7949 H         1 UNK         0.0934 
     88 H88        29.3243    0.2855   -4.5454 H         1 UNK         0.0739 
     89 H89        26.9136   -1.0510   -3.6244 H         1 UNK         0.3093 
     90 H90        25.9550   -1.7643   -7.0238 H         1 UNK         0.0818 
     91 H91        26.8982   -3.9095   -5.0746 H         1 UNK         0.0819 
     92 H92        26.0620   -4.1081   -6.6000 H         1 UNK         0.0819 
     93 H93        27.7203   -3.5346   -6.5804 H         1 UNK         0.0819 
     94 H94        24.8258   -2.7245   -4.5905 H         1 UNK         0.3041 
     95 H95        22.4476    0.0012   -4.3957 H         1 UNK         0.0784 
     96 H96        21.7204   -1.7227   -6.0346 H         1 UNK         0.0793 
     97 H97        22.3619   -3.0018   -5.0120 H         1 UNK         0.0793 
     98 H98        21.0124   -2.0160   -4.4545 H         1 UNK         0.0793 
     99 H99        23.4946   -2.3418   -2.8632 H         1 UNK         0.3024 
    100 H100       24.3056   -0.3536   -0.0945 H         1 UNK         0.1171 
    101 H101       22.7052   -1.6918    1.2566 H         1 UNK         0.0786 
    102 H102       21.8426   -0.4663    0.3435 H         1 UNK         0.0786 
    103 H103       21.8100   -2.1389   -0.1971 H         1 UNK         0.0786 
    104 H104       24.0750   -3.1828   -0.3069 H         1 UNK         0.2977 
    105 H105       25.9526    1.2048   -4.1082 H         1 UNK         0.3127 
    106 H106       26.3903    4.0639   -4.2308 H         1 UNK         0.0770 
    107 H107       23.8522    2.4321   -4.7783 H         1 UNK         0.0814 
    108 H108       23.9398    4.1713   -4.5610 H         1 UNK         0.0814 
    109 H109       24.3265    3.1040   -3.2211 H         1 UNK         0.0814 
    110 H110       25.5958    1.5088   -6.6161 H         1 UNK         0.2983 
    111 H111       25.6617    3.2223   -8.9319 H         1 UNK         0.0947 
    112 H112       25.7728    1.0571  -10.1716 H         1 UNK         0.0806 
    113 H113       24.5297    1.0040   -8.9303 H         1 UNK         0.0806 
    114 H114       26.0711    0.1910   -8.6703 H         1 UNK         0.0806 
    115 H115       28.0809    1.1462   -7.3475 H         1 UNK         0.3000 
    116 H116       30.2343    1.0384   -7.2260 H         1 UNK         0.0850 
    117 H117       31.7594    2.8869   -7.8657 H         1 UNK         0.0810 
    118 H118       30.3962    3.4741   -6.9263 H         1 UNK         0.0810 
    119 H119       30.4464    3.7343   -8.6675 H         1 UNK         0.0810 
    120 H120       29.7549    2.4395  -10.4765 H         1 UNK         0.3040 
    121 H121       30.5248    1.9172  -12.5206 H         1 UNK         0.0766 
    122 H122       28.6686    0.3065  -12.3525 H         1 UNK         0.0812 
    123 H123       29.7067   -0.9089  -11.6266 H         1 UNK         0.0812 
    124 H124       29.9592   -0.4046  -13.2995 H         1 UNK         0.0812 
    125 H125       31.6781   -1.2551  -12.0420 H         1 UNK         0.3205 
    126 H126       34.3822   -0.6818  -12.7133 H         1 UNK         0.0754 
    127 H127       34.7124   -3.1193  -12.2537 H         1 UNK         0.0769 
    128 H128       33.2821   -2.8483  -13.2340 H         1 UNK         0.0769 
    129 H129       33.1202   -3.2088  -11.5136 H         1 UNK         0.0769 
    130 H130       32.7720   -0.7213   -9.5689 H         1 UNK         0.2981 
    131 H131       35.2676   -0.9243   -8.0583 H         1 UNK         0.0541 
    132 H132       33.9555    1.6872   -9.8790 H         1 UNK         0.3459 
    133 H133       34.7016    2.9531   -8.9351 H         1 UNK         0.3459 
    134 H134       32.5092   -0.1830   -7.0093 H         1 UNK         0.0612 
    135 H135       33.9000   -0.6301   -6.0570 H         1 UNK         0.0612 
    136 H136       30.6675   -3.3373   -6.9269 H         1 UNK         0.0624 
    137 H137       30.7144   -1.6021   -6.8251 H         1 UNK         0.0624 
@<TRIPOS>BOND
     1    1    2 1    
     2    1   72 1    
     3    1   73 1    
     4    1   74 1    
     5    2    3 2    
     6    2    4 am   BACKBONE|DICT|INTERRES
     7    4    5 1    
     8    4   75 1    
     9    5    6 1    
    10    5   35 1    
    11    5   76 1    
    12    6    7 1    
    13    6   77 1    
    14    6   78 1    
    15    7    8 1    
    16    8    9 1    
    17    8   79 1    
    18    8   80 1    
    19    9   10 ar   
    20    9   14 ar   
    21   10   11 ar   
    22   10   81 1    
    23   11   12 ar   
    24   11   71 1    
    25   12   13 ar   
    26   12   82 1    
    27   13   14 ar   
    28   13   15 1    
    29   14   83 1    
    30   15   16 1    
    31   15   84 1    
    32   15   85 1    
    33   16   17 1    
    34   17   18 1    
    35   17   86 1    
    36   17   87 1    
    37   18   19 1    
    38   18   37 1    
    39   18   88 1    
    40   19   20 am   BACKBONE|DICT|INTERRES
    41   19   89 1    
    42   20   21 2    
    43   20   22 1    
    44   22   23 1    
    45   22   24 1    
    46   22   90 1    
    47   23   91 1    
    48   23   92 1    
    49   23   93 1    
    50   24   25 am   BACKBONE|DICT|INTERRES
    51   24   94 1    
    52   25   26 2    
    53   25   27 1    
    54   27   28 1    
    55   27   29 1    
    56   27   95 1    
    57   28   96 1    
    58   28   97 1    
    59   28   98 1    
    60   29   30 am   BACKBONE|DICT|INTERRES
    61   29   99 1    
    62   30   31 2    
    63   30   32 1    
    64   32   33 1    
    65   32   34 1    
    66   32  100 1    
    67   33  101 1    
    68   33  102 1    
    69   33  103 1    
    70   34   35 am   BACKBONE|DICT|INTERRES
    71   34  104 1    
    72   35   36 2    
    73   37   38 2    
    74   37   39 am   BACKBONE|DICT|INTERRES
    75   39   40 1    
    76   39  105 1    
    77   40   41 1    
    78   40   42 1    
    79   40  106 1    
    80   41  107 1    
    81   41  108 1    
    82   41  109 1    
    83   42   43 2    
    84   42   44 am   BACKBONE|DICT|INTERRES
    85   44   45 1    
    86   44  110 1    
    87   45   46 1    
    88   45   47 1    
    89   45  111 1    
    90   46  112 1    
    91   46  113 1    
    92   46  114 1    
    93   47   48 2    
    94   47   49 am   BACKBONE|DICT|INTERRES
    95   49   50 1    
    96   49  115 1    
    97   50   51 1    
    98   50   52 1    
    99   50  116 1    
   100   51  117 1    
   101   51  118 1    
   102   51  119 1    
   103   52   53 2    
   104   52   54 am   BACKBONE|DICT|INTERRES
   105   54   55 1    
   106   54  120 1    
   107   55   56 1    
   108   55   57 1    
   109   55  121 1    
   110   56  122 1    
   111   56  123 1    
   112   56  124 1    
   113   57   58 2    
   114   57   59 am   BACKBONE|DICT|INTERRES
   115   59   60 1    
   116   59  125 1    
   117   60   61 1    
   118   60   62 1    
   119   60  126 1    
   120   61  127 1    
   121   61  128 1    
   122   61  129 1    
   123   62   63 2    
   124   62   64 am   BACKBONE|DICT|INTERRES
   125   64   65 1    
   126   64  130 1    
   127   65   66 1    
   128   65   69 1    
   129   65  131 1    
   130   66   67 am   BACKBONE|DICT|INTERRES
   131   66   68 2    
   132   67  132 1    
   133   67  133 1    
   134   69   70 1    
   135   69  134 1    
   136   69  135 1    
   137   70   71 1    
   138   71  136 1    
   139   71  137 1    
@<TRIPOS>SUBSTRUCTURE
     1 UNK         1 GROUP             0       ****    0 ROOT    
