@<TRIPOS>MOLECULE
3R137
137   139    1
SMALL
USER_CHARGES


@<TRIPOS>ATOM
      1 CA         25.7894   -4.8431   -0.1879 C.3       0 UNK        -0.2020 
      2 C          25.8804   -3.3249   -0.2330 C.2       0 UNK         0.4855 
      3 O          25.1255   -2.6449    0.4624 O.2       0 UNK        -0.5197 
      4 N          26.8012   -2.7911   -1.0431 N.am      1 UNK        -0.4892 
      5 CA         26.9714   -1.3537   -1.2745 C.3       1 UNK         0.0835 
      6 C6         28.3934   -1.0115   -1.7810 C.3       12 UNK        -0.0855 
      7 S7         29.7193   -1.4855   -0.6185 S.3       12 UNK        -0.2931 
      8 C8         30.3494   -3.0440   -1.3322 C.3       12 UNK         0.0378 
      9 C9         30.7895   -2.8971   -2.7839 C.ar      12 UNK        -0.0802 
     10 C10        31.8450   -2.0429   -3.1186 C.ar      12 UNK        -0.0944 
     11 C11        32.2390   -1.8847   -4.4506 C.ar      12 UNK        -0.0787 
     12 C12        31.5638   -2.5941   -5.4511 C.ar      12 UNK        -0.0862 
     13 C13        30.5243   -3.4706   -5.1281 C.ar      12 UNK        -0.0733 
     14 C14        30.1387   -3.6155   -3.7928 C.ar      12 UNK        -0.0832 
     15 C15        29.8425   -4.2814   -6.2212 C.3       12 UNK         0.0240 
     16 S16        28.5945   -3.3105   -7.1187 S.3       12 UNK        -0.2522 
     17 C17        27.2613   -3.1756   -5.8789 C.3       12 UNK        -0.0967 
     18 CA         25.8782   -2.8335   -6.4969 C.3       5 UNK         0.0660 
     19 N          24.8207   -3.0571   -5.5217 N.am      5 UNK        -0.4015 
     20 C          23.9150   -4.0381   -5.5180 C.2       4 UNK         0.4946 
     21 O          23.9064   -4.9785   -6.3134 O.2       4 UNK        -0.5353 
     22 CA         22.8090   -3.9267   -4.4527 C.3       4 UNK         0.0277 
     23 CB         23.3003   -4.4640   -3.0990 C.3       4 UNK        -0.1981 
     24 N          22.3466   -2.5443   -4.2927 N.am      4 UNK        -0.4209 
     25 C          21.6456   -1.8640   -5.2103 C.2       3 UNK         0.4942 
     26 O          21.1872   -2.3766   -6.2321 O.2       3 UNK        -0.5208 
     27 CA         21.4465   -0.3536   -4.9861 C.3       3 UNK         0.0250 
     28 CB         20.1967   -0.0654   -4.1304 C.3       3 UNK        -0.1990 
     29 N          22.6447    0.3354   -4.4817 N.am      3 UNK        -0.4232 
     30 C          23.2079    0.2575   -3.2688 C.2       2 UNK         0.4993 
     31 O          22.7400   -0.3916   -2.3302 O.2       2 UNK        -0.5286 
     32 CA         24.5309    1.0247   -3.0878 C.3       2 UNK         0.0209 
     33 CB         24.2599    2.4575   -2.6012 C.3       2 UNK        -0.1931 
     34 N          25.4582    0.3698   -2.1578 N.am      2 UNK        -0.4546 
     35 C          25.9355   -0.8733   -2.3069 C.2       1 UNK         0.5154 
     36 O          25.6377   -1.6114   -3.2484 O.2       1 UNK        -0.5181 
     37 C          25.7947   -1.3577   -6.9369 C.2       5 UNK         0.5014 
     38 O          25.1415   -0.5409   -6.2798 O.2       5 UNK        -0.5248 
     39 N          26.5120   -1.0266   -8.0180 N.am      6 UNK        -0.4434 
     40 CA         26.7859    0.3508   -8.4411 C.3       6 UNK         0.0363 
     41 CB         27.1997    0.3496   -9.9215 C.3       6 UNK        -0.1936 
     42 C          27.8504    1.0435   -7.5605 C.2       6 UNK         0.5081 
     43 O          28.0576    2.2489   -7.7071 O.2       6 UNK        -0.5248 
     44 N          28.4965    0.2801   -6.6627 N.am      7 UNK        -0.4718 
     45 CA         29.4531    0.7102   -5.6404 C.3       7 UNK         0.0273 
     46 CB         28.7369    1.5518   -4.5597 C.3       7 UNK        -0.1935 
     47 C          30.6741    1.3916   -6.2774 C.2       7 UNK         0.5018 
     48 O          31.3796    0.7426   -7.0512 O.2       7 UNK        -0.5186 
     49 N          30.8956    2.6806   -5.9875 N.am      8 UNK        -0.4240 
     50 CA         31.9941    3.4887   -6.5278 C.3       8 UNK         0.0235 
     51 CB         31.9150    4.9098   -5.9484 C.3       8 UNK        -0.2000 
     52 C          32.0497    3.5366   -8.0661 C.2       8 UNK         0.4941 
     53 O          33.1445    3.6302   -8.6190 O.2       8 UNK        -0.5273 
     54 N          30.8920    3.4234   -8.7336 N.am      9 UNK        -0.4262 
     55 CA         30.8029    3.3279  -10.1921 C.3       9 UNK         0.0264 
     56 CB         29.3880    3.7191  -10.6450 C.3       9 UNK        -0.1955 
     57 C          31.2082    1.9467  -10.7453 C.2       9 UNK         0.5031 
     58 O          31.5158    1.8604  -11.9352 O.2       9 UNK        -0.5390 
     59 N          31.2183    0.9028   -9.9015 N.am      10 UNK        -0.4204 
     60 CA         31.7322   -0.4243  -10.2443 C.3       10 UNK         0.0237 
     61 CB         30.9490   -1.5199   -9.4978 C.3       10 UNK        -0.1985 
     62 C          33.2354   -0.5214   -9.9460 C.2       10 UNK         0.4970 
     63 O          33.9852   -0.9754  -10.8116 O.2       10 UNK        -0.4914 
     64 N          33.6511   -0.1018   -8.7414 N.am      11 UNK        -0.4285 
     65 CA         35.0624   -0.1303   -8.3149 C.3       11 UNK         0.1007 
     66 C          35.9643    0.9418   -8.9890 C.2       11 UNK         0.5703 
     67 N          35.4422    2.0792   -9.4292 N.am      11 UNK        -0.7361 
     68 O          37.1667    0.7287   -9.1267 O.2       11 UNK        -0.4986 
     69 C69        35.2227   -0.1031   -6.7726 C.3       12 UNK        -0.0947 
     70 S70        34.5511   -1.6104   -5.9952 S.3       12 UNK        -0.2240 
     71 C71        33.3649   -0.9169   -4.7996 C.3       12 UNK         0.0194 
     72 H72        24.7706   -5.1649   -0.4022 H         1 UNK         0.0906 
     73 H73        26.4520   -5.3142   -0.9137 H         1 UNK         0.0906 
     74 H74        26.0589   -5.2052    0.8039 H         1 UNK         0.0906 
     75 H75        27.3640   -3.3929   -1.6239 H         1 UNK         0.3140 
     76 H76        26.8009   -0.8241   -0.3342 H         1 UNK         0.1085 
     77 H77        28.5711   -1.4527   -2.7625 H         1 UNK         0.0836 
     78 H78        28.4842    0.0664   -1.9256 H         1 UNK         0.0836 
     79 H79        29.5844   -3.8149   -1.2318 H         1 UNK         0.0731 
     80 H80        31.1992   -3.3827   -0.7379 H         1 UNK         0.0731 
     81 H81        32.3470   -1.4883   -2.3374 H         1 UNK         0.1312 
     82 H82        31.8543   -2.4709   -6.4851 H         1 UNK         0.1406 
     83 H83        29.3321   -4.2905   -3.5413 H         1 UNK         0.1631 
     84 H84        29.3829   -5.1815   -5.8100 H         1 UNK         0.0717 
     85 H85        30.5927   -4.6258   -6.9346 H         1 UNK         0.0717 
     86 H86        27.1945   -4.1350   -5.3631 H         1 UNK         0.0934 
     87 H87        27.5466   -2.4485   -5.1154 H         1 UNK         0.0934 
     88 H88        25.7010   -3.4586   -7.3748 H         1 UNK         0.0739 
     89 H89        24.7735   -2.3365   -4.8046 H         1 UNK         0.3093 
     90 H90        21.9638   -4.5362   -4.7795 H         1 UNK         0.0818 
     91 H91        22.5051   -4.4489   -2.3535 H         1 UNK         0.0819 
     92 H92        23.6421   -5.4960   -3.1889 H         1 UNK         0.0819 
     93 H93        24.1330   -3.8762   -2.7118 H         1 UNK         0.0819 
     94 H94        22.6591   -2.0346   -3.4713 H         1 UNK         0.3041 
     95 H95        21.2655    0.0796   -5.9713 H         1 UNK         0.0784 
     96 H96        19.3024   -0.4701   -4.6060 H         1 UNK         0.0793 
     97 H97        20.2625   -0.5146   -3.1392 H         1 UNK         0.0793 
     98 H98        20.0403    1.0059   -4.0044 H         1 UNK         0.0793 
     99 H99        23.1571    0.8422   -5.1921 H         1 UNK         0.3024 
    100 H100       25.0329    1.0729   -4.0573 H         1 UNK         0.1171 
    101 H101       25.1811    3.0369   -2.5358 H         1 UNK         0.0786 
    102 H102       23.5959    2.9859   -3.2869 H         1 UNK         0.0786 
    103 H103       23.7857    2.4653   -1.6188 H         1 UNK         0.0786 
    104 H104       25.7347    0.9065   -1.3487 H         1 UNK         0.2977 
    105 H105       27.0312   -1.7558   -8.4889 H         1 UNK         0.3127 
    106 H106       25.8629    0.9273   -8.3490 H         1 UNK         0.0770 
    107 H107       28.2034   -0.0477  -10.0663 H         1 UNK         0.0814 
    108 H108       27.1877    1.3611  -10.3249 H         1 UNK         0.0814 
    109 H109       26.5122   -0.2387  -10.5294 H         1 UNK         0.0814 
    110 H110       28.3068   -0.7117   -6.6818 H         1 UNK         0.2983 
    111 H111       29.8264   -0.1963   -5.1613 H         1 UNK         0.0947 
    112 H112       29.4107    1.7962   -3.7374 H         1 UNK         0.0806 
    113 H113       27.8988    1.0000   -4.1342 H         1 UNK         0.0806 
    114 H114       28.3363    2.4855   -4.9562 H         1 UNK         0.0806 
    115 H115       30.2510    3.1470   -5.3661 H         1 UNK         0.3000 
    116 H116       32.9265    3.0320   -6.1888 H         1 UNK         0.0850 
    117 H117       32.7359    5.5272   -6.3164 H         1 UNK         0.0810 
    118 H118       31.9831    4.9005   -4.8604 H         1 UNK         0.0810 
    119 H119       30.9843    5.4072   -6.2241 H         1 UNK         0.0810 
    120 H120       30.0294    3.3131   -8.2125 H         1 UNK         0.3040 
    121 H121       31.4959    4.0534  -10.6242 H         1 UNK         0.0766 
    122 H122       28.6298    3.0888  -10.1855 H         1 UNK         0.0812 
    123 H123       29.2805    3.6282  -11.7268 H         1 UNK         0.0812 
    124 H124       29.1626    4.7530  -10.3836 H         1 UNK         0.0812 
    125 H125       31.0194    1.0598   -8.9179 H         1 UNK         0.3205 
    126 H126       31.5965   -0.6022  -11.3134 H         1 UNK         0.0754 
    127 H127       31.3759   -2.5048   -9.6918 H         1 UNK         0.0769 
    128 H128       29.9104   -1.5573   -9.8214 H         1 UNK         0.0769 
    129 H129       30.9549   -1.3744   -8.4187 H         1 UNK         0.0769 
    130 H130       32.9701    0.2347   -8.0680 H         1 UNK         0.2981 
    131 H131       35.4690   -1.0876   -8.6483 H         1 UNK         0.0541 
    132 H132       36.0492    2.7511   -9.8699 H         1 UNK         0.3459 
    133 H133       34.4786    2.3331   -9.2409 H         1 UNK         0.3459 
    134 H134       34.7523    0.7894   -6.3569 H         1 UNK         0.0612 
    135 H135       36.2769   -0.0481   -6.4943 H         1 UNK         0.0612 
    136 H136       32.9280   -0.0029   -5.1925 H         1 UNK         0.0624 
    137 H137       33.9174   -0.6283   -3.9043 H         1 UNK         0.0624 
@<TRIPOS>BOND
     1    1    2 1    
     2    1   72 1    
     3    1   73 1    
     4    1   74 1    
     5    2    3 2    
     6    2    4 am   BACKBONE|DICT|INTERRES
     7    4    5 1    
     8    4   75 1    
     9    5    6 1    
    10    5   35 1    
    11    5   76 1    
    12    6    7 1    
    13    6   77 1    
    14    6   78 1    
    15    7    8 1    
    16    8    9 1    
    17    8   79 1    
    18    8   80 1    
    19    9   10 ar   
    20    9   14 ar   
    21   10   11 ar   
    22   10   81 1    
    23   11   12 ar   
    24   11   71 1    
    25   12   13 ar   
    26   12   82 1    
    27   13   14 ar   
    28   13   15 1    
    29   14   83 1    
    30   15   16 1    
    31   15   84 1    
    32   15   85 1    
    33   16   17 1    
    34   17   18 1    
    35   17   86 1    
    36   17   87 1    
    37   18   19 1    
    38   18   37 1    
    39   18   88 1    
    40   19   20 am   BACKBONE|DICT|INTERRES
    41   19   89 1    
    42   20   21 2    
    43   20   22 1    
    44   22   23 1    
    45   22   24 1    
    46   22   90 1    
    47   23   91 1    
    48   23   92 1    
    49   23   93 1    
    50   24   25 am   BACKBONE|DICT|INTERRES
    51   24   94 1    
    52   25   26 2    
    53   25   27 1    
    54   27   28 1    
    55   27   29 1    
    56   27   95 1    
    57   28   96 1    
    58   28   97 1    
    59   28   98 1    
    60   29   30 am   BACKBONE|DICT|INTERRES
    61   29   99 1    
    62   30   31 2    
    63   30   32 1    
    64   32   33 1    
    65   32   34 1    
    66   32  100 1    
    67   33  101 1    
    68   33  102 1    
    69   33  103 1    
    70   34   35 am   BACKBONE|DICT|INTERRES
    71   34  104 1    
    72   35   36 2    
    73   37   38 2    
    74   37   39 am   BACKBONE|DICT|INTERRES
    75   39   40 1    
    76   39  105 1    
    77   40   41 1    
    78   40   42 1    
    79   40  106 1    
    80   41  107 1    
    81   41  108 1    
    82   41  109 1    
    83   42   43 2    
    84   42   44 am   BACKBONE|DICT|INTERRES
    85   44   45 1    
    86   44  110 1    
    87   45   46 1    
    88   45   47 1    
    89   45  111 1    
    90   46  112 1    
    91   46  113 1    
    92   46  114 1    
    93   47   48 2    
    94   47   49 am   BACKBONE|DICT|INTERRES
    95   49   50 1    
    96   49  115 1    
    97   50   51 1    
    98   50   52 1    
    99   50  116 1    
   100   51  117 1    
   101   51  118 1    
   102   51  119 1    
   103   52   53 2    
   104   52   54 am   BACKBONE|DICT|INTERRES
   105   54   55 1    
   106   54  120 1    
   107   55   56 1    
   108   55   57 1    
   109   55  121 1    
   110   56  122 1    
   111   56  123 1    
   112   56  124 1    
   113   57   58 2    
   114   57   59 am   BACKBONE|DICT|INTERRES
   115   59   60 1    
   116   59  125 1    
   117   60   61 1    
   118   60   62 1    
   119   60  126 1    
   120   61  127 1    
   121   61  128 1    
   122   61  129 1    
   123   62   63 2    
   124   62   64 am   BACKBONE|DICT|INTERRES
   125   64   65 1    
   126   64  130 1    
   127   65   66 1    
   128   65   69 1    
   129   65  131 1    
   130   66   67 am   BACKBONE|DICT|INTERRES
   131   66   68 2    
   132   67  132 1    
   133   67  133 1    
   134   69   70 1    
   135   69  134 1    
   136   69  135 1    
   137   70   71 1    
   138   71  136 1    
   139   71  137 1    
@<TRIPOS>SUBSTRUCTURE
     1 UNK         1 GROUP             0       ****    0 ROOT    
