@<TRIPOS>MOLECULE
3R137
137   139    1
SMALL
USER_CHARGES


@<TRIPOS>ATOM
      1 CA         23.2929   -2.8011    0.6576 C.3       0 UNK        -0.2020 
      2 C          24.7859   -2.5221    0.5764 C.2       0 UNK         0.4855 
      3 O          25.2018   -1.3709    0.7127 O.2       0 UNK        -0.5197 
      4 N          25.5982   -3.5648    0.3560 N.am      1 UNK        -0.4892 
      5 CA         27.0457   -3.4565    0.1473 C.3       1 UNK         0.0835 
      6 C6         27.7345   -4.8404    0.2492 C.3       12 UNK        -0.0855 
      7 S7         29.5539   -4.7317    0.4140 S.3       12 UNK        -0.2931 
      8 C8         30.1441   -5.8281   -0.9191 C.3       12 UNK         0.0378 
      9 C9         30.1878   -5.1426   -2.2804 C.ar      12 UNK        -0.0802 
     10 C10        31.3737   -4.5655   -2.7463 C.ar      12 UNK        -0.0944 
     11 C11        31.4437   -3.9927   -4.0214 C.ar      12 UNK        -0.0787 
     12 C12        30.2971   -4.0006   -4.8272 C.ar      12 UNK        -0.0862 
     13 C13        29.0862   -4.5294   -4.3605 C.ar      12 UNK        -0.0733 
     14 C14        29.0530   -5.1169   -3.0936 C.ar      12 UNK        -0.0832 
     15 C15        27.7741   -4.4512   -5.1462 C.3       12 UNK         0.0240 
     16 S16        27.9100   -4.2158   -6.9506 S.3       12 UNK        -0.2522 
     17 C17        28.3012   -2.4400   -7.0955 C.3       12 UNK        -0.0967 
     18 CA         27.0636   -1.5626   -7.3897 C.3       5 UNK         0.0660 
     19 N          26.1870   -1.4858   -6.2186 N.am      5 UNK        -0.4015 
     20 C          24.8634   -1.6878   -6.2205 C.2       4 UNK         0.4946 
     21 O          24.2074   -1.9272   -7.2351 O.2       4 UNK        -0.5353 
     22 CA         24.1372   -1.6283   -4.8614 C.3       4 UNK         0.0277 
     23 CB         23.8609   -3.0460   -4.3342 C.3       4 UNK        -0.1981 
     24 N          24.8705   -0.8733   -3.8418 N.am      4 UNK        -0.4209 
     25 C          24.9738    0.4646   -3.8295 C.2       3 UNK         0.4942 
     26 O          24.4030    1.1987   -4.6363 O.2       3 UNK        -0.5208 
     27 CA         25.8887    1.1001   -2.7652 C.3       3 UNK         0.0250 
     28 CB         25.0592    1.5614   -1.5566 C.3       3 UNK        -0.1990 
     29 N          26.9798    0.2381   -2.2992 N.am      3 UNK        -0.4232 
     30 C          27.9139   -0.3326   -3.0741 C.2       2 UNK         0.4993 
     31 O          27.9529   -0.2159   -4.2982 O.2       2 UNK        -0.5286 
     32 CA         28.9381   -1.2428   -2.3821 C.3       2 UNK         0.0209 
     33 CB         30.1817   -0.4406   -1.9748 C.3       2 UNK        -0.1931 
     34 N          28.4226   -1.9588   -1.2125 N.am      2 UNK        -0.4546 
     35 C          27.3453   -2.7557   -1.1935 C.2       1 UNK         0.5154 
     36 O          26.6091   -2.9463   -2.1669 O.2       1 UNK        -0.5181 
     37 C          27.5131   -0.1573   -7.8347 C.2       5 UNK         0.5014 
     38 O          27.6793    0.0664   -9.0355 O.2       5 UNK        -0.5248 
     39 N          27.7034    0.7648   -6.8778 N.am      6 UNK        -0.4434 
     40 CA         28.2347    2.1258   -7.0423 C.3       6 UNK         0.0363 
     41 CB         28.2951    2.8005   -5.6617 C.3       6 UNK        -0.1936 
     42 C          27.4952    3.0368   -8.0400 C.2       6 UNK         0.5081 
     43 O          28.0394    4.0722   -8.4238 O.2       6 UNK        -0.5248 
     44 N          26.2884    2.6406   -8.4629 N.am      7 UNK        -0.4718 
     45 CA         25.5394    3.2570   -9.5585 C.3       7 UNK         0.0273 
     46 CB         24.1290    2.6471   -9.6016 C.3       7 UNK        -0.1935 
     47 C          26.2278    3.1200  -10.9327 C.2       7 UNK         0.5018 
     48 O          25.9305    3.9202  -11.8211 O.2       7 UNK        -0.5186 
     49 N          27.1182    2.1284  -11.0918 N.am      8 UNK        -0.4240 
     50 CA         27.8686    1.8864  -12.3269 C.3       8 UNK         0.0235 
     51 CB         27.1141    0.8654  -13.1969 C.3       8 UNK        -0.2000 
     52 C          29.3168    1.4291  -12.0882 C.2       8 UNK         0.4941 
     53 O          30.1788    1.7560  -12.9060 O.2       8 UNK        -0.5273 
     54 N          29.5717    0.6623  -11.0195 N.am      9 UNK        -0.4262 
     55 CA         30.8782    0.0663  -10.7321 C.3       9 UNK         0.0264 
     56 CB         30.6712   -1.1710   -9.8451 C.3       9 UNK        -0.1955 
     57 C          31.8321    1.0401  -10.0253 C.2       9 UNK         0.5031 
     58 O          31.3937    2.0059   -9.3950 O.2       9 UNK        -0.5390 
     59 N          33.1260    0.6910  -10.0584 N.am      10 UNK        -0.4204 
     60 CA         34.2176    1.3636   -9.3423 C.3       10 UNK         0.0237 
     61 CB         35.5598    0.7873   -9.8242 C.3       10 UNK        -0.1985 
     62 C          34.1183    1.2874   -7.8038 C.2       10 UNK         0.4970 
     63 O          34.8277    2.0309   -7.1251 O.2       10 UNK        -0.4914 
     64 N          33.2424    0.4162   -7.2830 N.am      11 UNK        -0.4285 
     65 CA         32.8577    0.3292   -5.8648 C.3       11 UNK         0.1007 
     66 C          32.1865    1.6190   -5.3040 C.2       11 UNK         0.5703 
     67 N          31.6655    2.5149   -6.1358 N.am      11 UNK        -0.7361 
     68 O          32.1568    1.8162   -4.0927 O.2       11 UNK        -0.4986 
     69 C69        31.9625   -0.9113   -5.5933 C.3       12 UNK        -0.0947 
     70 S70        32.7651   -2.4814   -6.0663 S.3       12 UNK        -0.2240 
     71 C71        32.7824   -3.4029   -4.4833 C.3       12 UNK         0.0194 
     72 H72        22.9037   -2.4831    1.6244 H         1 UNK         0.0906 
     73 H73        22.7670   -2.2485   -0.1204 H         1 UNK         0.0906 
     74 H74        23.0678   -3.8601    0.5326 H         1 UNK         0.0906 
     75 H75        25.2000   -4.4828    0.2186 H         1 UNK         0.3140 
     76 H76        27.4331   -2.8270    0.9522 H         1 UNK         0.1085 
     77 H77        27.3743   -5.3591    1.1392 H         1 UNK         0.0836 
     78 H78        27.4554   -5.4786   -0.5893 H         1 UNK         0.0836 
     79 H79        31.1437   -6.1776   -0.6561 H         1 UNK         0.0731 
     80 H80        29.5222   -6.7234   -0.9655 H         1 UNK         0.0731 
     81 H81        32.2546   -4.5794   -2.1187 H         1 UNK         0.1312 
     82 H82        30.3494   -3.5852   -5.8188 H         1 UNK         0.1406 
     83 H83        28.1281   -5.5468   -2.7366 H         1 UNK         0.1631 
     84 H84        27.1700   -3.6464   -4.7284 H         1 UNK         0.0717 
     85 H85        27.2082   -5.3698   -4.9847 H         1 UNK         0.0717 
     86 H86        28.8064   -2.0813   -6.1978 H         1 UNK         0.0934 
     87 H87        29.0262   -2.3701   -7.9043 H         1 UNK         0.0934 
     88 H88        26.5258   -2.0023   -8.2325 H         1 UNK         0.0739 
     89 H89        26.6409   -1.2470   -5.3436 H         1 UNK         0.3093 
     90 H90        23.1763   -1.1364   -5.0278 H         1 UNK         0.0818 
     91 H91        23.2888   -3.0200   -3.4066 H         1 UNK         0.0819 
     92 H92        23.2823   -3.6250   -5.0552 H         1 UNK         0.0819 
     93 H93        24.7832   -3.5946   -4.1416 H         1 UNK         0.0819 
     94 H94        25.3828   -1.4138   -3.1526 H         1 UNK         0.3041 
     95 H95        26.3471    1.9804   -3.2184 H         1 UNK         0.0784 
     96 H96        24.2596    2.2362   -1.8656 H         1 UNK         0.0793 
     97 H97        24.5944    0.7193   -1.0421 H         1 UNK         0.0793 
     98 H98        25.6729    2.0993   -0.8338 H         1 UNK         0.0793 
     99 H99        27.0096    0.0469   -1.3076 H         1 UNK         0.3024 
    100 H100       29.2396   -1.9905   -3.1163 H         1 UNK         0.1171 
    101 H101       30.5473    0.1611   -2.8062 H         1 UNK         0.0786 
    102 H102       30.9952   -1.0994   -1.6701 H         1 UNK         0.0786 
    103 H103       29.9718    0.2432   -1.1517 H         1 UNK         0.0786 
    104 H104       28.9786   -1.8920   -0.3718 H         1 UNK         0.2977 
    105 H105       27.6210    0.4587   -5.9097 H         1 UNK         0.3127 
    106 H106       29.2521    2.0197   -7.4218 H         1 UNK         0.0770 
    107 H107       27.3017    2.8995   -5.2239 H         1 UNK         0.0814 
    108 H108       28.7217    3.8020   -5.7311 H         1 UNK         0.0814 
    109 H109       28.9170    2.2357   -4.9671 H         1 UNK         0.0814 
    110 H110       25.9186    1.7809   -8.0842 H         1 UNK         0.2983 
    111 H111       25.4490    4.3244   -9.3455 H         1 UNK         0.0947 
    112 H112       23.5297    3.1050  -10.3898 H         1 UNK         0.0806 
    113 H113       23.5991    2.8037   -8.6617 H         1 UNK         0.0806 
    114 H114       24.1591    1.5743   -9.7968 H         1 UNK         0.0806 
    115 H115       27.2973    1.5084  -10.3077 H         1 UNK         0.3000 
    116 H116       27.9416    2.8205  -12.8887 H         1 UNK         0.0850 
    117 H117       27.6561    0.6612  -14.1214 H         1 UNK         0.0810 
    118 H118       26.1273    1.2352  -13.4760 H         1 UNK         0.0810 
    119 H119       26.9820   -0.0844  -12.6773 H         1 UNK         0.0810 
    120 H120       28.8313    0.4454  -10.3564 H         1 UNK         0.3040 
    121 H121       31.3314   -0.2525  -11.6736 H         1 UNK         0.0766 
    122 H122       31.5865   -1.7580   -9.7601 H         1 UNK         0.0812 
    123 H123       29.9020   -1.8310  -10.2473 H         1 UNK         0.0812 
    124 H124       30.3789   -0.8794   -8.8367 H         1 UNK         0.0812 
    125 H125       33.3863   -0.1271  -10.5914 H         1 UNK         0.3205 
    126 H126       34.1832    2.4218   -9.6098 H         1 UNK         0.0754 
    127 H127       36.3987    1.2929   -9.3434 H         1 UNK         0.0769 
    128 H128       35.6841    0.9140  -10.8999 H         1 UNK         0.0769 
    129 H129       35.6477   -0.2760   -9.5970 H         1 UNK         0.0769 
    130 H130       32.7257   -0.1756   -7.9131 H         1 UNK         0.2981 
    131 H131       33.7812    0.2010   -5.2972 H         1 UNK         0.0541 
    132 H132       31.6873    2.3689   -7.1359 H         1 UNK         0.3459 
    133 H133       31.2586    3.3538   -5.7570 H         1 UNK         0.3459 
    134 H134       31.0220   -0.8292   -6.1409 H         1 UNK         0.0612 
    135 H135       31.6926   -0.9644   -4.5381 H         1 UNK         0.0612 
    136 H136       33.4937   -4.2233   -4.5861 H         1 UNK         0.0624 
    137 H137       33.1793   -2.7493   -3.7050 H         1 UNK         0.0624 
@<TRIPOS>BOND
     1    1    2 1    
     2    1   72 1    
     3    1   73 1    
     4    1   74 1    
     5    2    3 2    
     6    2    4 am   BACKBONE|DICT|INTERRES
     7    4    5 1    
     8    4   75 1    
     9    5    6 1    
    10    5   35 1    
    11    5   76 1    
    12    6    7 1    
    13    6   77 1    
    14    6   78 1    
    15    7    8 1    
    16    8    9 1    
    17    8   79 1    
    18    8   80 1    
    19    9   10 ar   
    20    9   14 ar   
    21   10   11 ar   
    22   10   81 1    
    23   11   12 ar   
    24   11   71 1    
    25   12   13 ar   
    26   12   82 1    
    27   13   14 ar   
    28   13   15 1    
    29   14   83 1    
    30   15   16 1    
    31   15   84 1    
    32   15   85 1    
    33   16   17 1    
    34   17   18 1    
    35   17   86 1    
    36   17   87 1    
    37   18   19 1    
    38   18   37 1    
    39   18   88 1    
    40   19   20 am   BACKBONE|DICT|INTERRES
    41   19   89 1    
    42   20   21 2    
    43   20   22 1    
    44   22   23 1    
    45   22   24 1    
    46   22   90 1    
    47   23   91 1    
    48   23   92 1    
    49   23   93 1    
    50   24   25 am   BACKBONE|DICT|INTERRES
    51   24   94 1    
    52   25   26 2    
    53   25   27 1    
    54   27   28 1    
    55   27   29 1    
    56   27   95 1    
    57   28   96 1    
    58   28   97 1    
    59   28   98 1    
    60   29   30 am   BACKBONE|DICT|INTERRES
    61   29   99 1    
    62   30   31 2    
    63   30   32 1    
    64   32   33 1    
    65   32   34 1    
    66   32  100 1    
    67   33  101 1    
    68   33  102 1    
    69   33  103 1    
    70   34   35 am   BACKBONE|DICT|INTERRES
    71   34  104 1    
    72   35   36 2    
    73   37   38 2    
    74   37   39 am   BACKBONE|DICT|INTERRES
    75   39   40 1    
    76   39  105 1    
    77   40   41 1    
    78   40   42 1    
    79   40  106 1    
    80   41  107 1    
    81   41  108 1    
    82   41  109 1    
    83   42   43 2    
    84   42   44 am   BACKBONE|DICT|INTERRES
    85   44   45 1    
    86   44  110 1    
    87   45   46 1    
    88   45   47 1    
    89   45  111 1    
    90   46  112 1    
    91   46  113 1    
    92   46  114 1    
    93   47   48 2    
    94   47   49 am   BACKBONE|DICT|INTERRES
    95   49   50 1    
    96   49  115 1    
    97   50   51 1    
    98   50   52 1    
    99   50  116 1    
   100   51  117 1    
   101   51  118 1    
   102   51  119 1    
   103   52   53 2    
   104   52   54 am   BACKBONE|DICT|INTERRES
   105   54   55 1    
   106   54  120 1    
   107   55   56 1    
   108   55   57 1    
   109   55  121 1    
   110   56  122 1    
   111   56  123 1    
   112   56  124 1    
   113   57   58 2    
   114   57   59 am   BACKBONE|DICT|INTERRES
   115   59   60 1    
   116   59  125 1    
   117   60   61 1    
   118   60   62 1    
   119   60  126 1    
   120   61  127 1    
   121   61  128 1    
   122   61  129 1    
   123   62   63 2    
   124   62   64 am   BACKBONE|DICT|INTERRES
   125   64   65 1    
   126   64  130 1    
   127   65   66 1    
   128   65   69 1    
   129   65  131 1    
   130   66   67 am   BACKBONE|DICT|INTERRES
   131   66   68 2    
   132   67  132 1    
   133   67  133 1    
   134   69   70 1    
   135   69  134 1    
   136   69  135 1    
   137   70   71 1    
   138   71  136 1    
   139   71  137 1    
@<TRIPOS>SUBSTRUCTURE
     1 UNK         1 GROUP             0       ****    0 ROOT    
