@<TRIPOS>MOLECULE
3R137
137   139    1
SMALL
USER_CHARGES


@<TRIPOS>ATOM
      1 CA         23.7325    0.0333   -6.2439 C.3       0 UNK        -0.2020 
      2 C          23.6252   -1.4419   -5.8933 C.2       0 UNK         0.4855 
      3 O          22.8950   -2.1794   -6.5535 O.2       0 UNK        -0.5197 
      4 N          24.3029   -1.8673   -4.8214 N.am      1 UNK        -0.4892 
      5 CA         24.2557   -3.2217   -4.2499 C.3       1 UNK         0.0835 
      6 C6         25.6270   -3.6413   -3.6425 C.3       12 UNK        -0.0855 
      7 S7         27.0739   -3.2347   -4.6768 S.3       12 UNK        -0.2931 
      8 C8         28.0471   -4.7728   -4.6402 C.3       12 UNK         0.0378 
      9 C9         29.5113   -4.4296   -4.8505 C.ar      12 UNK        -0.0802 
     10 C10        29.9988   -4.1882   -6.1376 C.ar      12 UNK        -0.0944 
     11 C11        31.3008   -3.7159   -6.3232 C.ar      12 UNK        -0.0787 
     12 C12        32.1224   -3.5022   -5.2124 C.ar      12 UNK        -0.0862 
     13 C13        31.6454   -3.7430   -3.9211 C.ar      12 UNK        -0.0733 
     14 C14        30.3515   -4.2462   -3.7484 C.ar      12 UNK        -0.0832 
     15 C15        32.4968   -3.3763   -2.7130 C.3       12 UNK         0.0240 
     16 S16        31.6630   -2.1737   -1.6185 S.3       12 UNK        -0.2522 
     17 C17        31.3272   -0.7536   -2.7276 C.3       12 UNK        -0.0967 
     18 CA         29.9333   -0.8181   -3.4203 C.3       5 UNK         0.0660 
     19 N          28.8284   -1.1228   -2.5034 N.am      5 UNK        -0.4015 
     20 C          28.3331   -0.3330   -1.5420 C.2       4 UNK         0.4946 
     21 O          28.7007    0.8225   -1.3179 O.2       4 UNK        -0.5353 
     22 CA         27.2595   -0.9727   -0.6460 C.3       4 UNK         0.0277 
     23 CB         27.7863   -1.1492    0.7881 C.3       4 UNK        -0.1981 
     24 N          26.0075   -0.2142   -0.6145 N.am      4 UNK        -0.4209 
     25 C          25.2237    0.0134   -1.6751 C.2       3 UNK         0.4942 
     26 O          25.5057   -0.3131   -2.8321 O.2       3 UNK        -0.5208 
     27 CA         23.8695    0.6791   -1.4021 C.3       3 UNK         0.0250 
     28 CB         23.8163    2.0795   -2.0348 C.3       3 UNK        -0.1990 
     29 N          22.8479   -0.1680   -2.0117 N.am      3 UNK        -0.4232 
     30 C          21.9996   -0.9758   -1.3589 C.2       2 UNK         0.4993 
     31 O          21.8309   -0.9611   -0.1394 O.2       2 UNK        -0.5286 
     32 CA         21.2467   -2.0114   -2.2200 C.3       2 UNK         0.0209 
     33 CB         19.9444   -1.4153   -2.7783 C.3       2 UNK        -0.1931 
     34 N          22.0872   -2.4807   -3.3268 N.am      2 UNK        -0.4546 
     35 C          23.1442   -3.2937   -3.1719 C.2       1 UNK         0.5154 
     36 O          23.2958   -4.0032   -2.1754 O.2       1 UNK        -0.5181 
     37 C          29.6306    0.3955   -4.3215 C.2       5 UNK         0.5014 
     38 O          30.4934    1.2526   -4.5191 O.2       5 UNK        -0.5248 
     39 N          28.4015    0.4371   -4.8527 N.am      6 UNK        -0.4434 
     40 CA         27.8962    1.5073   -5.7134 C.3       6 UNK         0.0363 
     41 CB         26.9744    2.4197   -4.8821 C.3       6 UNK        -0.1936 
     42 C          27.1992    0.9600   -6.9717 C.2       6 UNK         0.5081 
     43 O          26.4403    1.6955   -7.6034 O.2       6 UNK        -0.5248 
     44 N          27.4479   -0.3115   -7.3245 N.am      7 UNK        -0.4718 
     45 CA         26.8627   -0.9773   -8.4973 C.3       7 UNK         0.0273 
     46 CB         27.1405   -2.4867   -8.4245 C.3       7 UNK        -0.1935 
     47 C          27.3379   -0.4074   -9.8471 C.2       7 UNK         0.5018 
     48 O          26.6054   -0.5023  -10.8329 O.2       7 UNK        -0.5186 
     49 N          28.5394    0.1762   -9.8670 N.am      8 UNK        -0.4240 
     50 CA         29.1593    0.8450  -11.0039 C.3       8 UNK         0.0235 
     51 CB         29.8104   -0.1976  -11.9330 C.3       8 UNK        -0.2000 
     52 C          30.2071    1.8192  -10.4582 C.2       8 UNK         0.4941 
     53 O          30.6322    1.6743   -9.3096 O.2       8 UNK        -0.5273 
     54 N          30.6566    2.7604  -11.2997 N.am      9 UNK        -0.4262 
     55 CA         31.7223    3.7203  -10.9741 C.3       9 UNK         0.0264 
     56 CB         31.8776    4.7255  -12.1267 C.3       9 UNK        -0.1955 
     57 C          33.0746    3.0541  -10.6520 C.2       9 UNK         0.5031 
     58 O          33.8424    3.5898   -9.8516 O.2       9 UNK        -0.5390 
     59 N          33.3177    1.8777  -11.2470 N.am      10 UNK        -0.4204 
     60 CA         34.4734    1.0164  -10.9912 C.3       10 UNK         0.0237 
     61 CB         34.5109   -0.0929  -12.0558 C.3       10 UNK        -0.1985 
     62 C          34.5014    0.4011   -9.5780 C.2       10 UNK         0.4970 
     63 O          35.5717   -0.0298   -9.1466 O.2       10 UNK        -0.4914 
     64 N          33.3533    0.3582   -8.8862 N.am      11 UNK        -0.4285 
     65 CA         33.2365   -0.1531   -7.5120 C.3       11 UNK         0.1007 
     66 C          33.7961    0.8086   -6.4237 C.2       11 UNK         0.5703 
     67 N          34.0894    2.0682   -6.7306 N.am      11 UNK        -0.7361 
     68 O          33.9925    0.3933   -5.2845 O.2       11 UNK        -0.4986 
     69 C69        31.7884   -0.5916   -7.1735 C.3       12 UNK        -0.0947 
     70 S70        31.1068   -1.8179   -8.3422 S.3       12 UNK        -0.2240 
     71 C71        31.8015   -3.3838   -7.7203 C.3       12 UNK         0.0194 
     72 H72        24.0106    0.1586   -7.2891 H         1 UNK         0.0906 
     73 H73        22.7729    0.5260   -6.0903 H         1 UNK         0.0906 
     74 H74        24.4751    0.5416   -5.6307 H         1 UNK         0.0906 
     75 H75        24.8716   -1.2161   -4.2804 H         1 UNK         0.3140 
     76 H76        23.9984   -3.9376   -5.0335 H         1 UNK         0.1085 
     77 H77        25.6206   -4.7118   -3.4295 H         1 UNK         0.0836 
     78 H78        25.7868   -3.1467   -2.6832 H         1 UNK         0.0836 
     79 H79        27.9142   -5.2839   -3.6854 H         1 UNK         0.0731 
     80 H80        27.6939   -5.4528   -5.4167 H         1 UNK         0.0731 
     81 H81        29.3474   -4.3158   -6.9910 H         1 UNK         0.1312 
     82 H82        33.1178   -3.1029   -5.3526 H         1 UNK         0.1406 
     83 H83        29.9725   -4.4086   -2.7483 H         1 UNK         0.1631 
     84 H84        33.4580   -2.9621   -3.0217 H         1 UNK         0.0717 
     85 H85        32.7171   -4.2807   -2.1445 H         1 UNK         0.0717 
     86 H86        31.4043    0.1568   -2.1305 H         1 UNK         0.0934 
     87 H87        32.1216   -0.6913   -3.4739 H         1 UNK         0.0934 
     88 H88        29.9595   -1.6456   -4.1248 H         1 UNK         0.0739 
     89 H89        28.4265   -2.0421   -2.6193 H         1 UNK         0.3093 
     90 H90        27.0246   -1.9654   -1.0344 H         1 UNK         0.0818 
     91 H91        27.0709   -1.6834    1.4136 H         1 UNK         0.0819 
     92 H92        28.7134   -1.7246    0.7942 H         1 UNK         0.0819 
     93 H93        27.9975   -0.1891    1.2612 H         1 UNK         0.0819 
     94 H94        25.7083    0.1173    0.2910 H         1 UNK         0.3041 
     95 H95        23.7080    0.7685   -0.3257 H         1 UNK         0.0784 
     96 H96        22.8538    2.5577   -1.8525 H         1 UNK         0.0793 
     97 H97        24.5864    2.7272   -1.6137 H         1 UNK         0.0793 
     98 H98        23.9726    2.0455   -3.1138 H         1 UNK         0.0793 
     99 H99        22.9426   -0.2955   -3.0073 H         1 UNK         0.3024 
    100 H100       20.9946   -2.8607   -1.5803 H         1 UNK         0.1171 
    101 H101       20.1333   -0.5597   -3.4280 H         1 UNK         0.0786 
    102 H102       19.2957   -1.0743   -1.9702 H         1 UNK         0.0786 
    103 H103       19.3847   -2.1548   -3.3514 H         1 UNK         0.0786 
    104 H104       22.0024   -1.9936   -4.2078 H         1 UNK         0.2977 
    105 H105       27.7410   -0.2897   -4.6071 H         1 UNK         0.3127 
    106 H106       28.7264    2.1125   -6.0838 H         1 UNK         0.0770 
    107 H107       26.1166    1.8740   -4.4899 H         1 UNK         0.0814 
    108 H108       26.5938    3.2510   -5.4767 H         1 UNK         0.0814 
    109 H109       27.5081    2.8487   -4.0339 H         1 UNK         0.0814 
    110 H110       28.0941   -0.8542   -6.7699 H         1 UNK         0.2983 
    111 H111       25.7816   -0.8352   -8.4604 H         1 UNK         0.0947 
    112 H112       26.7349   -3.0018   -9.2963 H         1 UNK         0.0806 
    113 H113       26.6745   -2.9332   -7.5471 H         1 UNK         0.0806 
    114 H114       28.2086   -2.6995   -8.3893 H         1 UNK         0.0806 
    115 H115       29.0746    0.2447   -9.0094 H         1 UNK         0.3000 
    116 H116       28.4010    1.4133  -11.5469 H         1 UNK         0.0850 
    117 H117       30.5815   -0.7702  -11.4153 H         1 UNK         0.0810 
    118 H118       29.0734   -0.9041  -12.3151 H         1 UNK         0.0810 
    119 H119       30.2766    0.2765  -12.7973 H         1 UNK         0.0810 
    120 H120       30.2588    2.8198  -12.2268 H         1 UNK         0.3040 
    121 H121       31.4112    4.2679  -10.0818 H         1 UNK         0.0766 
    122 H122       30.9517    5.2728  -12.3045 H         1 UNK         0.0812 
    123 H123       32.1630    4.2341  -13.0578 H         1 UNK         0.0812 
    124 H124       32.6482    5.4635  -11.8987 H         1 UNK         0.0812 
    125 H125       32.6276    1.5267  -11.8942 H         1 UNK         0.3205 
    126 H126       35.3737    1.6255  -11.0967 H         1 UNK         0.0754 
    127 H127       35.3815   -0.7362  -11.9198 H         1 UNK         0.0769 
    128 H128       34.5734    0.3227  -13.0618 H         1 UNK         0.0769 
    129 H129       33.6258   -0.7290  -12.0076 H         1 UNK         0.0769 
    130 H130       32.5073    0.7580   -9.2747 H         1 UNK         0.2981 
    131 H131       33.8571   -1.0488   -7.4494 H         1 UNK         0.0541 
    132 H132       34.4583    2.6749   -6.0161 H         1 UNK         0.3459 
    133 H133       33.9433    2.4186   -7.6661 H         1 UNK         0.3459 
    134 H134       31.1253    0.2741   -7.1758 H         1 UNK         0.0612 
    135 H135       31.7321   -0.9917   -6.1620 H         1 UNK         0.0612 
    136 H136       31.5229   -4.1865   -8.4044 H         1 UNK         0.0624 
    137 H137       32.8908   -3.3292   -7.7409 H         1 UNK         0.0624 
@<TRIPOS>BOND
     1    1    2 1    
     2    1   72 1    
     3    1   73 1    
     4    1   74 1    
     5    2    3 2    
     6    2    4 am   BACKBONE|DICT|INTERRES
     7    4    5 1    
     8    4   75 1    
     9    5    6 1    
    10    5   35 1    
    11    5   76 1    
    12    6    7 1    
    13    6   77 1    
    14    6   78 1    
    15    7    8 1    
    16    8    9 1    
    17    8   79 1    
    18    8   80 1    
    19    9   10 ar   
    20    9   14 ar   
    21   10   11 ar   
    22   10   81 1    
    23   11   12 ar   
    24   11   71 1    
    25   12   13 ar   
    26   12   82 1    
    27   13   14 ar   
    28   13   15 1    
    29   14   83 1    
    30   15   16 1    
    31   15   84 1    
    32   15   85 1    
    33   16   17 1    
    34   17   18 1    
    35   17   86 1    
    36   17   87 1    
    37   18   19 1    
    38   18   37 1    
    39   18   88 1    
    40   19   20 am   BACKBONE|DICT|INTERRES
    41   19   89 1    
    42   20   21 2    
    43   20   22 1    
    44   22   23 1    
    45   22   24 1    
    46   22   90 1    
    47   23   91 1    
    48   23   92 1    
    49   23   93 1    
    50   24   25 am   BACKBONE|DICT|INTERRES
    51   24   94 1    
    52   25   26 2    
    53   25   27 1    
    54   27   28 1    
    55   27   29 1    
    56   27   95 1    
    57   28   96 1    
    58   28   97 1    
    59   28   98 1    
    60   29   30 am   BACKBONE|DICT|INTERRES
    61   29   99 1    
    62   30   31 2    
    63   30   32 1    
    64   32   33 1    
    65   32   34 1    
    66   32  100 1    
    67   33  101 1    
    68   33  102 1    
    69   33  103 1    
    70   34   35 am   BACKBONE|DICT|INTERRES
    71   34  104 1    
    72   35   36 2    
    73   37   38 2    
    74   37   39 am   BACKBONE|DICT|INTERRES
    75   39   40 1    
    76   39  105 1    
    77   40   41 1    
    78   40   42 1    
    79   40  106 1    
    80   41  107 1    
    81   41  108 1    
    82   41  109 1    
    83   42   43 2    
    84   42   44 am   BACKBONE|DICT|INTERRES
    85   44   45 1    
    86   44  110 1    
    87   45   46 1    
    88   45   47 1    
    89   45  111 1    
    90   46  112 1    
    91   46  113 1    
    92   46  114 1    
    93   47   48 2    
    94   47   49 am   BACKBONE|DICT|INTERRES
    95   49   50 1    
    96   49  115 1    
    97   50   51 1    
    98   50   52 1    
    99   50  116 1    
   100   51  117 1    
   101   51  118 1    
   102   51  119 1    
   103   52   53 2    
   104   52   54 am   BACKBONE|DICT|INTERRES
   105   54   55 1    
   106   54  120 1    
   107   55   56 1    
   108   55   57 1    
   109   55  121 1    
   110   56  122 1    
   111   56  123 1    
   112   56  124 1    
   113   57   58 2    
   114   57   59 am   BACKBONE|DICT|INTERRES
   115   59   60 1    
   116   59  125 1    
   117   60   61 1    
   118   60   62 1    
   119   60  126 1    
   120   61  127 1    
   121   61  128 1    
   122   61  129 1    
   123   62   63 2    
   124   62   64 am   BACKBONE|DICT|INTERRES
   125   64   65 1    
   126   64  130 1    
   127   65   66 1    
   128   65   69 1    
   129   65  131 1    
   130   66   67 am   BACKBONE|DICT|INTERRES
   131   66   68 2    
   132   67  132 1    
   133   67  133 1    
   134   69   70 1    
   135   69  134 1    
   136   69  135 1    
   137   70   71 1    
   138   71  136 1    
   139   71  137 1    
@<TRIPOS>SUBSTRUCTURE
     1 UNK         1 GROUP             0       ****    0 ROOT    
