@<TRIPOS>MOLECULE
3R137
137   139    1
SMALL
USER_CHARGES


@<TRIPOS>ATOM
      1 CA         24.6217   -5.0957    0.8300 C.3       0 UNK        -0.2020 
      2 C          24.2491   -4.8103   -0.6222 C.2       0 UNK         0.4855 
      3 O          23.1107   -5.0589   -1.0142 O.2       0 UNK        -0.5197 
      4 N          25.1577   -4.2876   -1.4529 N.am      1 UNK        -0.4892 
      5 CA         26.5283   -3.8867   -1.1404 C.3       1 UNK         0.0835 
      6 C6         27.5201   -5.0730   -1.2660 C.3       12 UNK        -0.0855 
      7 S7         29.1026   -4.7599   -0.4056 S.3       12 UNK        -0.2931 
      8 C8         30.3226   -5.5256   -1.5229 C.3       12 UNK         0.0378 
      9 C9         30.4591   -4.7929   -2.8526 C.ar      12 UNK        -0.0802 
     10 C10        31.2466   -3.6409   -2.9539 C.ar      12 UNK        -0.0944 
     11 C11        31.4137   -2.9967   -4.1860 C.ar      12 UNK        -0.0787 
     12 C12        30.7952   -3.5278   -5.3219 C.ar      12 UNK        -0.0862 
     13 C13        29.9683   -4.6517   -5.2270 C.ar      12 UNK        -0.0733 
     14 C14        29.8220   -5.2894   -3.9930 C.ar      12 UNK        -0.0832 
     15 C15        29.2162   -5.1817   -6.4438 C.3       12 UNK         0.0240 
     16 S16        28.3322   -3.8916   -7.3867 S.3       12 UNK        -0.2522 
     17 C17        27.5171   -2.9128   -6.0770 C.3       12 UNK        -0.0967 
     18 CA         26.6350   -1.7681   -6.6302 C.3       5 UNK         0.0660 
     19 N          25.7085   -1.2878   -5.6037 N.am      5 UNK        -0.4015 
     20 C          24.6365   -0.5159   -5.8315 C.2       4 UNK         0.4946 
     21 O          24.3709   -0.0142   -6.9245 O.2       4 UNK        -0.5353 
     22 CA         23.6912   -0.2815   -4.6435 C.3       4 UNK         0.0277 
     23 CB         22.8478   -1.5379   -4.3669 C.3       4 UNK        -0.1981 
     24 N          24.4418    0.0737   -3.4403 N.am      4 UNK        -0.4209 
     25 C          24.6178    1.3267   -2.9987 C.2       3 UNK         0.4942 
     26 O          24.0654    2.3131   -3.4877 O.2       3 UNK        -0.5208 
     27 CA         25.5879    1.5259   -1.8168 C.3       3 UNK         0.0250 
     28 CB         24.8153    1.5513   -0.4879 C.3       3 UNK        -0.1990 
     29 N          26.6591    0.5262   -1.7322 N.am      3 UNK        -0.4232 
     30 C          27.5497    0.2649   -2.7004 C.2       2 UNK         0.4993 
     31 O          27.5603    0.8305   -3.7892 O.2       2 UNK        -0.5286 
     32 CA         28.5498   -0.8704   -2.4443 C.3       2 UNK         0.0209 
     33 CB         29.7789   -0.3367   -1.6919 C.3       2 UNK        -0.1931 
     34 N          27.9822   -2.0068   -1.7129 N.am      2 UNK        -0.4546 
     35 C          26.8941   -2.7074   -2.0606 C.2       1 UNK         0.5154 
     36 O          26.1869   -2.4421   -3.0411 O.2       1 UNK        -0.5181 
     37 C          27.4714   -0.6506   -7.2940 C.2       5 UNK         0.5014 
     38 O          27.7774   -0.7702   -8.4830 O.2       5 UNK        -0.5248 
     39 N          27.8123    0.4244   -6.5619 N.am      6 UNK        -0.4434 
     40 CA         28.6585    1.5289   -7.0397 C.3       6 UNK         0.0363 
     41 CB         28.8952    2.5537   -5.9201 C.3       6 UNK        -0.1936 
     42 C          28.1490    2.2476   -8.2984 C.2       6 UNK         0.5081 
     43 O          28.9684    2.8007   -9.0299 O.2       6 UNK        -0.5248 
     44 N          26.8371    2.1810   -8.5649 N.am      7 UNK        -0.4718 
     45 CA         26.2088    2.6605   -9.7996 C.3       7 UNK         0.0273 
     46 CB         24.6847    2.5028   -9.6794 C.3       7 UNK        -0.1935 
     47 C          26.7251    1.9611  -11.0739 C.2       7 UNK         0.5018 
     48 O          26.6678    2.5631  -12.1471 O.2       7 UNK        -0.5186 
     49 N          27.2260    0.7257  -10.9335 N.am      8 UNK        -0.4240 
     50 CA         27.8778   -0.0412  -11.9933 C.3       8 UNK         0.0235 
     51 CB         27.1974   -1.4153  -12.1152 C.3       8 UNK        -0.2000 
     52 C          29.3792   -0.2102  -11.7144 C.2       8 UNK         0.4941 
     53 O          30.1814   -0.0549  -12.6356 O.2       8 UNK        -0.5273 
     54 N          29.7362   -0.5496  -10.4674 N.am      9 UNK        -0.4262 
     55 CA         31.0946   -0.9318  -10.0747 C.3       9 UNK         0.0264 
     56 CB         31.0256   -1.7945   -8.8060 C.3       9 UNK        -0.1955 
     57 C          32.0641    0.2400   -9.8581 C.2       9 UNK         0.5031 
     58 O          33.2718    0.0140   -9.9476 O.2       9 UNK        -0.5390 
     59 N          31.5449    1.4416   -9.5552 N.am      10 UNK        -0.4204 
     60 CA         32.2939    2.6523   -9.1887 C.3       10 UNK         0.0237 
     61 CB         33.0414    3.2217  -10.4139 C.3       10 UNK        -0.1985 
     62 C          33.2115    2.4269   -7.9683 C.2       10 UNK         0.4970 
     63 O          34.4280    2.5980   -8.0700 O.2       10 UNK        -0.4914 
     64 N          32.6049    2.0206   -6.8427 N.am      11 UNK        -0.4285 
     65 CA         33.2892    1.6961   -5.5765 C.3       11 UNK         0.1007 
     66 C          34.0899    2.8666   -4.9308 C.2       11 UNK         0.5703 
     67 N          33.7903    4.1242   -5.2353 N.am      11 UNK        -0.7361 
     68 O          34.9969    2.6251   -4.1379 O.2       11 UNK        -0.4986 
     69 C69        32.3206    1.0904   -4.5243 C.3       12 UNK        -0.0947 
     70 S70        31.3802   -0.3622   -5.1047 S.3       12 UNK        -0.2240 
     71 C71        32.2652   -1.7348   -4.2876 C.3       12 UNK         0.0194 
     72 H72        24.6821   -4.1670    1.3967 H         1 UNK         0.0906 
     73 H73        23.8657   -5.7244    1.3000 H         1 UNK         0.0906 
     74 H74        25.5745   -5.6165    0.9097 H         1 UNK         0.0906 
     75 H75        24.8845   -4.0395   -2.3962 H         1 UNK         0.3140 
     76 H76        26.5513   -3.5006   -0.1193 H         1 UNK         0.1085 
     77 H77        27.6838   -5.3209   -2.3140 H         1 UNK         0.0836 
     78 H78        27.0952   -5.9744   -0.8236 H         1 UNK         0.0836 
     79 H79        31.2914   -5.5409   -1.0215 H         1 UNK         0.0731 
     80 H80        30.0533   -6.5706   -1.6850 H         1 UNK         0.0731 
     81 H81        31.7344   -3.2527   -2.0703 H         1 UNK         0.1312 
     82 H82        30.9225   -3.0386   -6.2765 H         1 UNK         0.1406 
     83 H83        29.2084   -6.1770   -3.9193 H         1 UNK         0.1631 
     84 H84        28.4882   -5.9375   -6.1449 H         1 UNK         0.0717 
     85 H85        29.9234   -5.6802   -7.1077 H         1 UNK         0.0717 
     86 H86        26.9103   -3.6056   -5.4913 H         1 UNK         0.0934 
     87 H87        28.2614   -2.5106   -5.3893 H         1 UNK         0.0934 
     88 H88        26.0111   -2.1912   -7.4208 H         1 UNK         0.0739 
     89 H89        25.8535   -1.6626   -4.6693 H         1 UNK         0.3093 
     90 H90        23.0080    0.5260   -4.9157 H         1 UNK         0.0818 
     91 H91        22.1278   -1.3605   -3.5678 H         1 UNK         0.0819 
     92 H92        22.2821   -1.8304   -5.2526 H         1 UNK         0.0819 
     93 H93        23.4640   -2.3897   -4.0764 H         1 UNK         0.0819 
     94 H94        24.9599   -0.6710   -2.9905 H         1 UNK         0.3041 
     95 H95        26.0652    2.4983   -1.9550 H         1 UNK         0.0784 
     96 H96        24.0264    2.3048   -0.5093 H         1 UNK         0.0793 
     97 H97        24.3428    0.5911   -0.2769 H         1 UNK         0.0793 
     98 H98        25.4701    1.7962    0.3487 H         1 UNK         0.0793 
     99 H99        26.7235   -0.0010   -0.8737 H         1 UNK         0.3024 
    100 H100       28.8799   -1.2406   -3.4170 H         1 UNK         0.1171 
    101 H101       30.2338    0.4956   -2.2310 H         1 UNK         0.0786 
    102 H102       30.5442   -1.1045   -1.5844 H         1 UNK         0.0786 
    103 H103       29.5209    0.0217   -0.6947 H         1 UNK         0.0786 
    104 H104       28.5171   -2.3380   -0.9210 H         1 UNK         0.2977 
    105 H105       27.5418    0.4707   -5.5799 H         1 UNK         0.3127 
    106 H106       29.6214    1.0873   -7.2995 H         1 UNK         0.0770 
    107 H107       27.9562    2.9707   -5.5541 H         1 UNK         0.0814 
    108 H108       29.5098    3.3862   -6.2656 H         1 UNK         0.0814 
    109 H109       29.4127    2.1046   -5.0741 H         1 UNK         0.0814 
    110 H110       26.2430    1.6842   -7.9142 H         1 UNK         0.2983 
    111 H111       26.4409    3.7232   -9.8980 H         1 UNK         0.0947 
    112 H112       24.1812    2.8687  -10.5754 H         1 UNK         0.0806 
    113 H113       24.2920    3.0687   -8.8344 H         1 UNK         0.0806 
    114 H114       24.3974    1.4588   -9.5456 H         1 UNK         0.0806 
    115 H115       27.2428    0.3149  -10.0044 H         1 UNK         0.3000 
    116 H116       27.7783    0.4704  -12.9531 H         1 UNK         0.0850 
    117 H117       27.6709   -2.0187  -12.8908 H         1 UNK         0.0810 
    118 H118       26.1456   -1.3115  -12.3823 H         1 UNK         0.0810 
    119 H119       27.2506   -1.9794  -11.1827 H         1 UNK         0.0810 
    120 H120       29.0105   -0.6765   -9.7625 H         1 UNK         0.3040 
    121 H121       31.5171   -1.5494  -10.8706 H         1 UNK         0.0766 
    122 H122       30.4794   -2.7180   -8.9935 H         1 UNK         0.0812 
    123 H123       32.0223   -2.0755   -8.4626 H         1 UNK         0.0812 
    124 H124       30.5334   -1.2707   -7.9863 H         1 UNK         0.0812 
    125 H125       30.5361    1.5462   -9.5418 H         1 UNK         0.3205 
    126 H126       31.5582    3.3980   -8.8847 H         1 UNK         0.0754 
    127 H127       33.5295    4.1658  -10.1686 H         1 UNK         0.0769 
    128 H128       32.3559    3.4161  -11.2388 H         1 UNK         0.0769 
    129 H129       33.8135    2.5410  -10.7741 H         1 UNK         0.0769 
    130 H130       31.6070    1.8855   -6.8448 H         1 UNK         0.2981 
    131 H131       34.0258    0.9278   -5.8188 H         1 UNK         0.0541 
    132 H132       33.0494    4.3327   -5.8842 H         1 UNK         0.3459 
    133 H133       34.3172    4.8721   -4.8129 H         1 UNK         0.3459 
    134 H134       31.5968    1.8434   -4.2091 H         1 UNK         0.0612 
    135 H135       32.8666    0.8174   -3.6197 H         1 UNK         0.0612 
    136 H136       33.1757   -1.9552   -4.8459 H         1 UNK         0.0624 
    137 H137       32.5766   -1.4195   -3.2910 H         1 UNK         0.0624 
@<TRIPOS>BOND
     1    1    2 1    
     2    1   72 1    
     3    1   73 1    
     4    1   74 1    
     5    2    3 2    
     6    2    4 am   BACKBONE|DICT|INTERRES
     7    4    5 1    
     8    4   75 1    
     9    5    6 1    
    10    5   35 1    
    11    5   76 1    
    12    6    7 1    
    13    6   77 1    
    14    6   78 1    
    15    7    8 1    
    16    8    9 1    
    17    8   79 1    
    18    8   80 1    
    19    9   10 ar   
    20    9   14 ar   
    21   10   11 ar   
    22   10   81 1    
    23   11   12 ar   
    24   11   71 1    
    25   12   13 ar   
    26   12   82 1    
    27   13   14 ar   
    28   13   15 1    
    29   14   83 1    
    30   15   16 1    
    31   15   84 1    
    32   15   85 1    
    33   16   17 1    
    34   17   18 1    
    35   17   86 1    
    36   17   87 1    
    37   18   19 1    
    38   18   37 1    
    39   18   88 1    
    40   19   20 am   BACKBONE|DICT|INTERRES
    41   19   89 1    
    42   20   21 2    
    43   20   22 1    
    44   22   23 1    
    45   22   24 1    
    46   22   90 1    
    47   23   91 1    
    48   23   92 1    
    49   23   93 1    
    50   24   25 am   BACKBONE|DICT|INTERRES
    51   24   94 1    
    52   25   26 2    
    53   25   27 1    
    54   27   28 1    
    55   27   29 1    
    56   27   95 1    
    57   28   96 1    
    58   28   97 1    
    59   28   98 1    
    60   29   30 am   BACKBONE|DICT|INTERRES
    61   29   99 1    
    62   30   31 2    
    63   30   32 1    
    64   32   33 1    
    65   32   34 1    
    66   32  100 1    
    67   33  101 1    
    68   33  102 1    
    69   33  103 1    
    70   34   35 am   BACKBONE|DICT|INTERRES
    71   34  104 1    
    72   35   36 2    
    73   37   38 2    
    74   37   39 am   BACKBONE|DICT|INTERRES
    75   39   40 1    
    76   39  105 1    
    77   40   41 1    
    78   40   42 1    
    79   40  106 1    
    80   41  107 1    
    81   41  108 1    
    82   41  109 1    
    83   42   43 2    
    84   42   44 am   BACKBONE|DICT|INTERRES
    85   44   45 1    
    86   44  110 1    
    87   45   46 1    
    88   45   47 1    
    89   45  111 1    
    90   46  112 1    
    91   46  113 1    
    92   46  114 1    
    93   47   48 2    
    94   47   49 am   BACKBONE|DICT|INTERRES
    95   49   50 1    
    96   49  115 1    
    97   50   51 1    
    98   50   52 1    
    99   50  116 1    
   100   51  117 1    
   101   51  118 1    
   102   51  119 1    
   103   52   53 2    
   104   52   54 am   BACKBONE|DICT|INTERRES
   105   54   55 1    
   106   54  120 1    
   107   55   56 1    
   108   55   57 1    
   109   55  121 1    
   110   56  122 1    
   111   56  123 1    
   112   56  124 1    
   113   57   58 2    
   114   57   59 am   BACKBONE|DICT|INTERRES
   115   59   60 1    
   116   59  125 1    
   117   60   61 1    
   118   60   62 1    
   119   60  126 1    
   120   61  127 1    
   121   61  128 1    
   122   61  129 1    
   123   62   63 2    
   124   62   64 am   BACKBONE|DICT|INTERRES
   125   64   65 1    
   126   64  130 1    
   127   65   66 1    
   128   65   69 1    
   129   65  131 1    
   130   66   67 am   BACKBONE|DICT|INTERRES
   131   66   68 2    
   132   67  132 1    
   133   67  133 1    
   134   69   70 1    
   135   69  134 1    
   136   69  135 1    
   137   70   71 1    
   138   71  136 1    
   139   71  137 1    
@<TRIPOS>SUBSTRUCTURE
     1 UNK         1 GROUP             0       ****    0 ROOT    
