@<TRIPOS>MOLECULE
3R137
137   139    1
SMALL
USER_CHARGES


@<TRIPOS>ATOM
      1 CA         26.2961   -6.1193   -5.7289 C.3       0 UNK        -0.2020 
      2 C          26.1235   -5.4705   -4.3643 C.2       0 UNK         0.4855 
      3 O          25.0099   -5.0866   -4.0053 O.2       0 UNK        -0.5197 
      4 N          27.2135   -5.3357   -3.5984 N.am      1 UNK        -0.4892 
      5 CA         27.2315   -4.7112   -2.2718 C.3       1 UNK         0.0835 
      6 C6         28.5604   -4.9514   -1.5086 C.3       12 UNK        -0.0855 
      7 S7         30.0771   -4.7206   -2.5053 S.3       12 UNK        -0.2931 
      8 C8         31.1788   -3.8474   -1.3470 C.3       12 UNK         0.0378 
      9 C9         31.3788   -2.3996   -1.7640 C.ar      12 UNK        -0.0802 
     10 C10        32.3258   -2.0916   -2.7434 C.ar      12 UNK        -0.0944 
     11 C11        32.5297   -0.7697   -3.1443 C.ar      12 UNK        -0.0787 
     12 C12        31.8005    0.2538   -2.5331 C.ar      12 UNK        -0.0862 
     13 C13        30.8518   -0.0385   -1.5472 C.ar      12 UNK        -0.0733 
     14 C14        30.6393   -1.3707   -1.1717 C.ar      12 UNK        -0.0832 
     15 C15        30.0756    1.0844   -0.8670 C.3       12 UNK         0.0240 
     16 S16        29.2092    2.1776   -2.0428 S.3       12 UNK        -0.2522 
     17 C17        28.0101    1.0346   -2.8007 C.3       12 UNK        -0.0967 
     18 CA         28.0001    1.1322   -4.3485 C.3       5 UNK         0.0660 
     19 N          27.6023   -0.1340   -4.9640 N.am      5 UNK        -0.4015 
     20 C          27.5819   -0.3939   -6.2792 C.2       4 UNK         0.4946 
     21 O          27.9847    0.3777   -7.1521 O.2       4 UNK        -0.5353 
     22 CA         26.9511   -1.7337   -6.6894 C.3       4 UNK         0.0277 
     23 CB         27.9776   -2.8752   -6.5943 C.3       4 UNK        -0.1981 
     24 N          25.7648   -2.0508   -5.8851 N.am      4 UNK        -0.4209 
     25 C          24.6201   -1.3504   -5.9213 C.2       3 UNK         0.4942 
     26 O          24.4186   -0.4076   -6.6846 O.2       3 UNK        -0.5208 
     27 CA         23.5374   -1.7238   -4.8969 C.3       3 UNK         0.0250 
     28 CB         22.7090   -2.9232   -5.3835 C.3       3 UNK        -0.1990 
     29 N          24.0984   -1.9938   -3.5700 N.am      3 UNK        -0.4232 
     30 C          24.6425   -1.0469   -2.7890 C.2       2 UNK         0.4993 
     31 O          24.6875    0.1427   -3.0967 O.2       2 UNK        -0.5286 
     32 CA         25.2866   -1.4879   -1.4627 C.3       2 UNK         0.0209 
     33 CB         24.2655   -1.4052   -0.3174 C.3       2 UNK        -0.1931 
     34 N          25.8702   -2.8308   -1.5013 N.am      2 UNK        -0.4546 
     35 C          26.8396   -3.2211   -2.3402 C.2       1 UNK         0.5154 
     36 O          27.3713   -2.4714   -3.1637 O.2       1 UNK        -0.5181 
     37 C          27.1250    2.3052   -4.8424 C.2       5 UNK         0.5014 
     38 O          27.6606    3.2872   -5.3580 O.2       5 UNK        -0.5248 
     39 N          25.7963    2.1664   -4.7080 N.am      6 UNK        -0.4434 
     40 CA         24.7964    3.1580   -5.1168 C.3       6 UNK         0.0363 
     41 CB         23.4069    2.7183   -4.6292 C.3       6 UNK        -0.1936 
     42 C          24.7725    3.4245   -6.6306 C.2       6 UNK         0.5081 
     43 O          24.6030    4.5745   -7.0368 O.2       6 UNK        -0.5248 
     44 N          24.9616    2.3720   -7.4381 N.am      7 UNK        -0.4718 
     45 CA         25.0714    2.4567   -8.8976 C.3       7 UNK         0.0273 
     46 CB         24.9050    1.0500   -9.4963 C.3       7 UNK        -0.1935 
     47 C          26.3917    3.0815   -9.3851 C.2       7 UNK         0.5018 
     48 O          26.4688    3.4548  -10.5566 O.2       7 UNK        -0.5186 
     49 N          27.3996    3.1583   -8.5009 N.am      8 UNK        -0.4240 
     50 CA         28.7856    3.5622   -8.7604 C.3       8 UNK         0.0235 
     51 CB         28.8708    5.0590   -9.1281 C.3       8 UNK        -0.2000 
     52 C          29.4611    2.6373   -9.7907 C.2       8 UNK         0.4941 
     53 O          30.0861    3.1126  -10.7422 O.2       8 UNK        -0.5273 
     54 N          29.2886    1.3239   -9.5905 N.am      9 UNK        -0.4262 
     55 CA         29.8541    0.2642  -10.4251 C.3       9 UNK         0.0264 
     56 CB         29.1254   -1.0506  -10.0937 C.3       9 UNK        -0.1955 
     57 C          31.3714    0.1121  -10.2146 C.2       9 UNK         0.5031 
     58 O          31.9302    0.6622   -9.2612 O.2       9 UNK        -0.5390 
     59 N          32.0129   -0.6863  -11.0786 N.am      10 UNK        -0.4204 
     60 CA         33.4256   -1.0763  -10.9865 C.3       10 UNK         0.0237 
     61 CB         33.9013   -1.5665  -12.3675 C.3       10 UNK        -0.1985 
     62 C          33.6612   -2.1186   -9.8709 C.2       10 UNK         0.4970 
     63 O          34.1054   -3.2360  -10.1439 O.2       10 UNK        -0.4914 
     64 N          33.3239   -1.7352   -8.6358 N.am      11 UNK        -0.4285 
     65 CA         33.4041   -2.5501   -7.4168 C.3       11 UNK         0.1007 
     66 C          34.8411   -2.7896   -6.8656 C.2       11 UNK         0.5703 
     67 N          35.8721   -2.1239   -7.3746 N.am      11 UNK        -0.7361 
     68 O          35.0234   -3.6051   -5.9645 O.2       11 UNK        -0.4986 
     69 C69        32.4315   -2.0146   -6.3307 C.3       12 UNK        -0.0947 
     70 S70        32.7351   -0.2721   -5.8580 S.3       12 UNK        -0.2240 
     71 C71        33.5388   -0.4446   -4.2342 C.3       12 UNK         0.0194 
     72 H72        25.8463   -5.4947   -6.5012 H         1 UNK         0.0906 
     73 H73        27.3473   -6.2686   -5.9790 H         1 UNK         0.0906 
     74 H74        25.7992   -7.0901   -5.7465 H         1 UNK         0.0906 
     75 H75        28.1196   -5.6220   -3.9437 H         1 UNK         0.3140 
     76 H76        26.4519   -5.2168   -1.6964 H         1 UNK         0.1085 
     77 H77        28.5968   -4.3338   -0.6091 H         1 UNK         0.0836 
     78 H78        28.5776   -5.9810   -1.1477 H         1 UNK         0.0836 
     79 H79        32.1437   -4.3575   -1.3377 H         1 UNK         0.0731 
     80 H80        30.8055   -3.9075   -0.3238 H         1 UNK         0.0731 
     81 H81        32.8978   -2.8876   -3.2004 H         1 UNK         0.1312 
     82 H82        31.9639    1.2801   -2.8327 H         1 UNK         0.1406 
     83 H83        29.9072   -1.6081   -0.4119 H         1 UNK         0.1631 
     84 H84        30.7726    1.6849   -0.2811 H         1 UNK         0.0717 
     85 H85        29.3470    0.6836   -0.1604 H         1 UNK         0.0717 
     86 H86        28.2682    0.0191   -2.4976 H         1 UNK         0.0934 
     87 H87        27.0259    1.2245   -2.3697 H         1 UNK         0.0934 
     88 H88        29.0212    1.3163   -4.6908 H         1 UNK         0.0739 
     89 H89        27.3208   -0.8765   -4.3304 H         1 UNK         0.3093 
     90 H90        26.6388   -1.6423   -7.7320 H         1 UNK         0.0818 
     91 H91        28.2647   -3.0852   -5.5637 H         1 UNK         0.0819 
     92 H92        27.5876   -3.7934   -7.0311 H         1 UNK         0.0819 
     93 H93        28.8914   -2.6285   -7.1348 H         1 UNK         0.0819 
     94 H94        25.8616   -2.7762   -5.1884 H         1 UNK         0.3041 
     95 H95        22.8628   -0.8695   -4.8050 H         1 UNK         0.0784 
     96 H96        22.2220   -2.6959   -6.3327 H         1 UNK         0.0793 
     97 H97        23.3236   -3.8092   -5.5413 H         1 UNK         0.0793 
     98 H98        21.9247   -3.1803   -4.6714 H         1 UNK         0.0793 
     99 H99        24.1330   -2.9603   -3.2717 H         1 UNK         0.3024 
    100 H100       26.0954   -0.7870   -1.2477 H         1 UNK         0.1171 
    101 H101       23.8323   -0.4057   -0.2532 H         1 UNK         0.0786 
    102 H102       24.7302   -1.6161    0.6460 H         1 UNK         0.0786 
    103 H103       23.4431   -2.1082   -0.4564 H         1 UNK         0.0786 
    104 H104       25.4744   -3.5081   -0.8647 H         1 UNK         0.2977 
    105 H105       25.4338    1.3379   -4.2365 H         1 UNK         0.3127 
    106 H106       25.0485    4.0986   -4.6228 H         1 UNK         0.0770 
    107 H107       23.1163    1.7583   -5.0581 H         1 UNK         0.0814 
    108 H108       22.6445    3.4468   -4.9084 H         1 UNK         0.0814 
    109 H109       23.3801    2.6208   -3.5438 H         1 UNK         0.0814 
    110 H110       25.0164    1.4413   -7.0319 H         1 UNK         0.2983 
    111 H111       24.2586    3.0858   -9.2669 H         1 UNK         0.0947 
    112 H112       24.9557    1.0769  -10.5856 H         1 UNK         0.0806 
    113 H113       23.9415    0.6161   -9.2286 H         1 UNK         0.0806 
    114 H114       25.6862    0.3722   -9.1493 H         1 UNK         0.0806 
    115 H115       27.2234    2.8124   -7.5649 H         1 UNK         0.3000 
    116 H116       29.3245    3.4203   -7.8220 H         1 UNK         0.0850 
    117 H117       29.9098    5.3811   -9.2061 H         1 UNK         0.0810 
    118 H118       28.3946    5.6799   -8.3691 H         1 UNK         0.0810 
    119 H119       28.3929    5.2716  -10.0848 H         1 UNK         0.0810 
    120 H120       28.7970    1.0246   -8.7503 H         1 UNK         0.3040 
    121 H121       29.6736    0.5176  -11.4723 H         1 UNK         0.0766 
    122 H122       28.0455   -0.9465  -10.2060 H         1 UNK         0.0812 
    123 H123       29.3255   -1.3658   -9.0693 H         1 UNK         0.0812 
    124 H124       29.4402   -1.8612  -10.7518 H         1 UNK         0.0812 
    125 H125       31.4782   -1.1246  -11.8151 H         1 UNK         0.3205 
    126 H126       34.0138   -0.1923  -10.7299 H         1 UNK         0.0754 
    127 H127       34.9602   -1.8303  -12.3458 H         1 UNK         0.0769 
    128 H128       33.7789   -0.7929  -13.1266 H         1 UNK         0.0769 
    129 H129       33.3515   -2.4499  -12.6957 H         1 UNK         0.0769 
    130 H130       32.9426   -0.7990   -8.5195 H         1 UNK         0.2981 
    131 H131       33.0431   -3.5445   -7.6884 H         1 UNK         0.0541 
    132 H132       36.7976   -2.2923   -7.0126 H         1 UNK         0.3459 
    133 H133       35.7308   -1.4500   -8.1097 H         1 UNK         0.3459 
    134 H134       31.4081   -2.0703   -6.7060 H         1 UNK         0.0612 
    135 H135       32.4465   -2.6584   -5.4520 H         1 UNK         0.0612 
    136 H136       34.0462    0.4909   -3.9945 H         1 UNK         0.0624 
    137 H137       34.3162   -1.2083   -4.2846 H         1 UNK         0.0624 
@<TRIPOS>BOND
     1    1    2 1    
     2    1   72 1    
     3    1   73 1    
     4    1   74 1    
     5    2    3 2    
     6    2    4 am   BACKBONE|DICT|INTERRES
     7    4    5 1    
     8    4   75 1    
     9    5    6 1    
    10    5   35 1    
    11    5   76 1    
    12    6    7 1    
    13    6   77 1    
    14    6   78 1    
    15    7    8 1    
    16    8    9 1    
    17    8   79 1    
    18    8   80 1    
    19    9   10 ar   
    20    9   14 ar   
    21   10   11 ar   
    22   10   81 1    
    23   11   12 ar   
    24   11   71 1    
    25   12   13 ar   
    26   12   82 1    
    27   13   14 ar   
    28   13   15 1    
    29   14   83 1    
    30   15   16 1    
    31   15   84 1    
    32   15   85 1    
    33   16   17 1    
    34   17   18 1    
    35   17   86 1    
    36   17   87 1    
    37   18   19 1    
    38   18   37 1    
    39   18   88 1    
    40   19   20 am   BACKBONE|DICT|INTERRES
    41   19   89 1    
    42   20   21 2    
    43   20   22 1    
    44   22   23 1    
    45   22   24 1    
    46   22   90 1    
    47   23   91 1    
    48   23   92 1    
    49   23   93 1    
    50   24   25 am   BACKBONE|DICT|INTERRES
    51   24   94 1    
    52   25   26 2    
    53   25   27 1    
    54   27   28 1    
    55   27   29 1    
    56   27   95 1    
    57   28   96 1    
    58   28   97 1    
    59   28   98 1    
    60   29   30 am   BACKBONE|DICT|INTERRES
    61   29   99 1    
    62   30   31 2    
    63   30   32 1    
    64   32   33 1    
    65   32   34 1    
    66   32  100 1    
    67   33  101 1    
    68   33  102 1    
    69   33  103 1    
    70   34   35 am   BACKBONE|DICT|INTERRES
    71   34  104 1    
    72   35   36 2    
    73   37   38 2    
    74   37   39 am   BACKBONE|DICT|INTERRES
    75   39   40 1    
    76   39  105 1    
    77   40   41 1    
    78   40   42 1    
    79   40  106 1    
    80   41  107 1    
    81   41  108 1    
    82   41  109 1    
    83   42   43 2    
    84   42   44 am   BACKBONE|DICT|INTERRES
    85   44   45 1    
    86   44  110 1    
    87   45   46 1    
    88   45   47 1    
    89   45  111 1    
    90   46  112 1    
    91   46  113 1    
    92   46  114 1    
    93   47   48 2    
    94   47   49 am   BACKBONE|DICT|INTERRES
    95   49   50 1    
    96   49  115 1    
    97   50   51 1    
    98   50   52 1    
    99   50  116 1    
   100   51  117 1    
   101   51  118 1    
   102   51  119 1    
   103   52   53 2    
   104   52   54 am   BACKBONE|DICT|INTERRES
   105   54   55 1    
   106   54  120 1    
   107   55   56 1    
   108   55   57 1    
   109   55  121 1    
   110   56  122 1    
   111   56  123 1    
   112   56  124 1    
   113   57   58 2    
   114   57   59 am   BACKBONE|DICT|INTERRES
   115   59   60 1    
   116   59  125 1    
   117   60   61 1    
   118   60   62 1    
   119   60  126 1    
   120   61  127 1    
   121   61  128 1    
   122   61  129 1    
   123   62   63 2    
   124   62   64 am   BACKBONE|DICT|INTERRES
   125   64   65 1    
   126   64  130 1    
   127   65   66 1    
   128   65   69 1    
   129   65  131 1    
   130   66   67 am   BACKBONE|DICT|INTERRES
   131   66   68 2    
   132   67  132 1    
   133   67  133 1    
   134   69   70 1    
   135   69  134 1    
   136   69  135 1    
   137   70   71 1    
   138   71  136 1    
   139   71  137 1    
@<TRIPOS>SUBSTRUCTURE
     1 UNK         1 GROUP             0       ****    0 ROOT    
