@<TRIPOS>MOLECULE
3R137
137   139    1
SMALL
USER_CHARGES


@<TRIPOS>ATOM
      1 CA         29.0323   -5.7501   -4.2777 C.3       0 UNK        -0.2020 
      2 C          28.0381   -5.1553   -3.2915 C.2       0 UNK         0.4855 
      3 O          26.8872   -5.5908   -3.2411 O.2       0 UNK        -0.5197 
      4 N          28.4810   -4.1770   -2.4932 N.am      1 UNK        -0.4892 
      5 CA         27.6911   -3.5096   -1.4519 C.3       1 UNK         0.0835 
      6 C6         28.5682   -2.6653   -0.4826 C.3       12 UNK        -0.0855 
      7 S7         30.1669   -3.4438   -0.0491 S.3       12 UNK        -0.2931 
      8 C8         31.3782   -2.1382   -0.4621 C.3       12 UNK         0.0378 
      9 C9         31.2068   -1.5620   -1.8650 C.ar      12 UNK        -0.0802 
     10 C10        31.3933   -2.3650   -2.9950 C.ar      12 UNK        -0.0944 
     11 C11        31.2463   -1.8287   -4.2791 C.ar      12 UNK        -0.0787 
     12 C12        30.9001   -0.4824   -4.4276 C.ar      12 UNK        -0.0862 
     13 C13        30.7218    0.3348   -3.3076 C.ar      12 UNK        -0.0733 
     14 C14        30.8814   -0.2105   -2.0298 C.ar      12 UNK        -0.0832 
     15 C15        30.3920    1.8134   -3.4888 C.3       12 UNK         0.0240 
     16 S16        28.8539    2.3411   -2.6538 S.3       12 UNK        -0.2522 
     17 C17        27.6383    1.0887   -3.1817 C.3       12 UNK        -0.0967 
     18 CA         27.3172    1.1126   -4.6967 C.3       5 UNK         0.0660 
     19 N          26.9319   -0.2178   -5.1701 N.am      5 UNK        -0.4015 
     20 C          26.7353   -0.5823   -6.4439 C.2       4 UNK         0.4946 
     21 O          26.7616    0.1974   -7.3949 O.2       4 UNK        -0.5353 
     22 CA         26.4329   -2.0667   -6.6863 C.3       4 UNK         0.0277 
     23 CB         27.6962   -2.9247   -6.5023 C.3       4 UNK        -0.1981 
     24 N          25.3940   -2.5336   -5.7701 N.am      4 UNK        -0.4209 
     25 C          24.0795   -2.4725   -6.0205 C.2       3 UNK         0.4942 
     26 O          23.6006   -2.1018   -7.0926 O.2       3 UNK        -0.5208 
     27 CA         23.1295   -2.8872   -4.8811 C.3       3 UNK         0.0250 
     28 CB         22.7798   -4.3801   -4.9908 C.3       3 UNK        -0.1990 
     29 N          23.6517   -2.6108   -3.5391 N.am      3 UNK        -0.4232 
     30 C          23.9231   -1.3882   -3.0617 C.2       2 UNK         0.4993 
     31 O          23.7749   -0.3491   -3.7042 O.2       2 UNK        -0.5286 
     32 CA         24.5186   -1.3136   -1.6455 C.3       2 UNK         0.0209 
     33 CB         23.4020   -1.3599   -0.5900 C.3       2 UNK        -0.1931 
     34 N          25.5331   -2.3323   -1.3338 N.am      2 UNK        -0.4546 
     35 C          26.6122   -2.6079   -2.0807 C.2       1 UNK         0.5154 
     36 O          26.8041   -2.1317   -3.2019 O.2       1 UNK        -0.5181 
     37 C          26.3087    2.2192   -5.0674 C.2       5 UNK         0.5014 
     38 O          26.7312    3.3437   -5.3394 O.2       5 UNK        -0.5248 
     39 N          25.0121    1.8824   -5.1578 N.am      6 UNK        -0.4434 
     40 CA         23.9516    2.7619   -5.6676 C.3       6 UNK         0.0363 
     41 CB         22.5946    2.0524   -5.5347 C.3       6 UNK        -0.1936 
     42 C          24.1605    3.2405   -7.1200 C.2       6 UNK         0.5081 
     43 O          23.6300    4.2905   -7.4835 O.2       6 UNK        -0.5248 
     44 N          24.9339    2.4868   -7.9128 N.am      7 UNK        -0.4718 
     45 CA         25.3482    2.8300   -9.2744 C.3       7 UNK         0.0273 
     46 CB         24.9205    1.6865  -10.2125 C.3       7 UNK        -0.1935 
     47 C          26.8679    3.0772   -9.3527 C.2       7 UNK         0.5018 
     48 O          27.4208    3.0631  -10.4543 O.2       7 UNK        -0.5186 
     49 N          27.5287    3.2589   -8.1972 N.am      8 UNK        -0.4240 
     50 CA         28.9757    3.3628   -7.9559 C.3       8 UNK         0.0235 
     51 CB         29.5974    4.5729   -8.6796 C.3       8 UNK        -0.2000 
     52 C          29.7550    2.0697   -8.2550 C.2       8 UNK         0.4941 
     53 O          30.5418    1.6352   -7.4126 O.2       8 UNK        -0.5273 
     54 N          29.5337    1.4874   -9.4409 N.am      9 UNK        -0.4262 
     55 CA         30.0647    0.2335   -9.9935 C.3       9 UNK         0.0264 
     56 CB         29.6158   -0.9747   -9.1528 C.3       9 UNK        -0.1955 
     57 C          31.5846    0.1951  -10.2334 C.2       9 UNK         0.5031 
     58 O          32.0021   -0.3211  -11.2709 O.2       9 UNK        -0.5390 
     59 N          32.3732    0.7233   -9.2866 N.am      10 UNK        -0.4204 
     60 CA         33.8411    0.7458   -9.2493 C.3       10 UNK         0.0237 
     61 CB         34.4019    1.6825  -10.3409 C.3       10 UNK        -0.1985 
     62 C          34.4405   -0.6738   -9.2992 C.2       10 UNK         0.4970 
     63 O          35.2784   -0.9682  -10.1540 O.2       10 UNK        -0.4914 
     64 N          33.9692   -1.5329   -8.3860 N.am      11 UNK        -0.4285 
     65 CA         34.3550   -2.9487   -8.2668 C.3       11 UNK         0.1007 
     66 C          35.8354   -3.2194   -7.8582 C.2       11 UNK         0.5703 
     67 N          36.5828   -2.2383   -7.3660 N.am      11 UNK        -0.7361 
     68 O          36.3153   -4.3415   -8.0030 O.2       11 UNK        -0.4986 
     69 C69        33.3534   -3.7342   -7.3762 C.3       12 UNK        -0.0947 
     70 S70        33.2569   -3.0949   -5.6673 S.3       12 UNK        -0.2240 
     71 C71        31.4911   -2.6912   -5.5079 C.3       12 UNK         0.0194 
     72 H72        30.0498   -5.4142   -4.0799 H         1 UNK         0.0906 
     73 H73        29.0217   -6.8375   -4.2086 H         1 UNK         0.0906 
     74 H74        28.7699   -5.4735   -5.2974 H         1 UNK         0.0906 
     75 H75        29.4269   -3.8358   -2.5836 H         1 UNK         0.3140 
     76 H76        27.1908   -4.2907   -0.8751 H         1 UNK         0.1085 
     77 H77        28.7553   -1.6719   -0.8925 H         1 UNK         0.0836 
     78 H78        28.0229   -2.4888    0.4462 H         1 UNK         0.0836 
     79 H79        32.3839   -2.5504   -0.3688 H         1 UNK         0.0731 
     80 H80        31.3039   -1.3500    0.2888 H         1 UNK         0.0731 
     81 H81        31.6733   -3.4028   -2.8753 H         1 UNK         0.1312 
     82 H82        30.7897   -0.0637   -5.4186 H         1 UNK         0.1406 
     83 H83        30.7478    0.4235   -1.1636 H         1 UNK         0.1631 
     84 H84        30.3237    2.0686   -4.5474 H         1 UNK         0.0717 
     85 H85        31.2188    2.4051   -3.0942 H         1 UNK         0.0717 
     86 H86        28.0467    0.1203   -2.8929 H         1 UNK         0.0934 
     87 H87        26.7308    1.2033   -2.5862 H         1 UNK         0.0934 
     88 H88        28.2335    1.3430   -5.2423 H         1 UNK         0.0739 
     89 H89        26.8774   -0.9414   -4.4528 H         1 UNK         0.3093 
     90 H90        26.0939   -2.1798   -7.7185 H         1 UNK         0.0818 
     91 H91        28.4845   -2.6192   -7.1881 H         1 UNK         0.0819 
     92 H92        28.1003   -2.8508   -5.4919 H         1 UNK         0.0819 
     93 H93        27.4856   -3.9746   -6.7043 H         1 UNK         0.0819 
     94 H94        25.6979   -2.7954   -4.8391 H         1 UNK         0.3041 
     95 H95        22.2099   -2.3101   -5.0006 H         1 UNK         0.0784 
     96 H96        22.3676   -4.6133   -5.9738 H         1 UNK         0.0793 
     97 H97        23.6577   -5.0117   -4.8470 H         1 UNK         0.0793 
     98 H98        22.0322   -4.6687   -4.2517 H         1 UNK         0.0793 
     99 H99        23.8329   -3.4068   -2.9444 H         1 UNK         0.3024 
    100 H100       25.0123   -0.3429   -1.5670 H         1 UNK         0.1171 
    101 H101       23.7911   -1.1648    0.4095 H         1 UNK         0.0786 
    102 H102       22.6421   -0.6031   -0.7912 H         1 UNK         0.0786 
    103 H103       22.9009   -2.3285   -0.5729 H         1 UNK         0.0786 
    104 H104       25.4521   -2.7720   -0.4279 H         1 UNK         0.2977 
    105 H105       24.7204    0.9558   -4.8563 H         1 UNK         0.3127 
    106 H106       23.9347    3.6527   -5.0364 H         1 UNK         0.0770 
    107 H107       22.5786    1.1095   -6.0832 H         1 UNK         0.0814 
    108 H108       21.7858    2.6725   -5.9239 H         1 UNK         0.0814 
    109 H109       22.3606    1.8377   -4.4920 H         1 UNK         0.0814 
    110 H110       25.3592    1.6444   -7.5339 H         1 UNK         0.2983 
    111 H111       24.8618    3.7492   -9.6070 H         1 UNK         0.0947 
    112 H112       25.1558    1.9185  -11.2520 H         1 UNK         0.0806 
    113 H113       23.8462    1.5103  -10.1576 H         1 UNK         0.0806 
    114 H114       25.4266    0.7530   -9.9617 H         1 UNK         0.0806 
    115 H115       26.9739    3.2500   -7.3472 H         1 UNK         0.3000 
    116 H116       29.0765    3.5405   -6.8838 H         1 UNK         0.0850 
    117 H117       30.6475    4.6883   -8.4080 H         1 UNK         0.0810 
    118 H118       29.0895    5.4985   -8.4088 H         1 UNK         0.0810 
    119 H119       29.5547    4.4726   -9.7643 H         1 UNK         0.0810 
    120 H120       28.8671    1.9711  -10.0399 H         1 UNK         0.3040 
    121 H121       29.5989    0.1344  -10.9753 H         1 UNK         0.0766 
    122 H122       29.9761   -0.9107   -8.1265 H         1 UNK         0.0812 
    123 H123       29.9892   -1.9092   -9.5739 H         1 UNK         0.0812 
    124 H124       28.5286   -1.0445   -9.1234 H         1 UNK         0.0812 
    125 H125       31.8918    1.1036   -8.4711 H         1 UNK         0.3205 
    126 H126       34.1202    1.1655   -8.2816 H         1 UNK         0.0754 
    127 H127       35.4853    1.7756  -10.2561 H         1 UNK         0.0769 
    128 H128       33.9831    2.6852  -10.2551 H         1 UNK         0.0769 
    129 H129       34.1852    1.3142  -11.3443 H         1 UNK         0.0769 
    130 H130       33.2997   -1.2045   -7.7070 H         1 UNK         0.2981 
    131 H131       34.2647   -3.3661   -9.2715 H         1 UNK         0.0541 
    132 H132       36.1967   -1.3174   -7.2381 H         1 UNK         0.3459 
    133 H133       37.5394   -2.4264   -7.1111 H         1 UNK         0.3459 
    134 H134       33.6215   -4.7914   -7.3333 H         1 UNK         0.0612 
    135 H135       32.3624   -3.7052   -7.8315 H         1 UNK         0.0612 
    136 H136       31.1551   -2.1748   -6.4078 H         1 UNK         0.0624 
    137 H137       30.9104   -3.6111   -5.4415 H         1 UNK         0.0624 
@<TRIPOS>BOND
     1    1    2 1    
     2    1   72 1    
     3    1   73 1    
     4    1   74 1    
     5    2    3 2    
     6    2    4 am   BACKBONE|DICT|INTERRES
     7    4    5 1    
     8    4   75 1    
     9    5    6 1    
    10    5   35 1    
    11    5   76 1    
    12    6    7 1    
    13    6   77 1    
    14    6   78 1    
    15    7    8 1    
    16    8    9 1    
    17    8   79 1    
    18    8   80 1    
    19    9   10 ar   
    20    9   14 ar   
    21   10   11 ar   
    22   10   81 1    
    23   11   12 ar   
    24   11   71 1    
    25   12   13 ar   
    26   12   82 1    
    27   13   14 ar   
    28   13   15 1    
    29   14   83 1    
    30   15   16 1    
    31   15   84 1    
    32   15   85 1    
    33   16   17 1    
    34   17   18 1    
    35   17   86 1    
    36   17   87 1    
    37   18   19 1    
    38   18   37 1    
    39   18   88 1    
    40   19   20 am   BACKBONE|DICT|INTERRES
    41   19   89 1    
    42   20   21 2    
    43   20   22 1    
    44   22   23 1    
    45   22   24 1    
    46   22   90 1    
    47   23   91 1    
    48   23   92 1    
    49   23   93 1    
    50   24   25 am   BACKBONE|DICT|INTERRES
    51   24   94 1    
    52   25   26 2    
    53   25   27 1    
    54   27   28 1    
    55   27   29 1    
    56   27   95 1    
    57   28   96 1    
    58   28   97 1    
    59   28   98 1    
    60   29   30 am   BACKBONE|DICT|INTERRES
    61   29   99 1    
    62   30   31 2    
    63   30   32 1    
    64   32   33 1    
    65   32   34 1    
    66   32  100 1    
    67   33  101 1    
    68   33  102 1    
    69   33  103 1    
    70   34   35 am   BACKBONE|DICT|INTERRES
    71   34  104 1    
    72   35   36 2    
    73   37   38 2    
    74   37   39 am   BACKBONE|DICT|INTERRES
    75   39   40 1    
    76   39  105 1    
    77   40   41 1    
    78   40   42 1    
    79   40  106 1    
    80   41  107 1    
    81   41  108 1    
    82   41  109 1    
    83   42   43 2    
    84   42   44 am   BACKBONE|DICT|INTERRES
    85   44   45 1    
    86   44  110 1    
    87   45   46 1    
    88   45   47 1    
    89   45  111 1    
    90   46  112 1    
    91   46  113 1    
    92   46  114 1    
    93   47   48 2    
    94   47   49 am   BACKBONE|DICT|INTERRES
    95   49   50 1    
    96   49  115 1    
    97   50   51 1    
    98   50   52 1    
    99   50  116 1    
   100   51  117 1    
   101   51  118 1    
   102   51  119 1    
   103   52   53 2    
   104   52   54 am   BACKBONE|DICT|INTERRES
   105   54   55 1    
   106   54  120 1    
   107   55   56 1    
   108   55   57 1    
   109   55  121 1    
   110   56  122 1    
   111   56  123 1    
   112   56  124 1    
   113   57   58 2    
   114   57   59 am   BACKBONE|DICT|INTERRES
   115   59   60 1    
   116   59  125 1    
   117   60   61 1    
   118   60   62 1    
   119   60  126 1    
   120   61  127 1    
   121   61  128 1    
   122   61  129 1    
   123   62   63 2    
   124   62   64 am   BACKBONE|DICT|INTERRES
   125   64   65 1    
   126   64  130 1    
   127   65   66 1    
   128   65   69 1    
   129   65  131 1    
   130   66   67 am   BACKBONE|DICT|INTERRES
   131   66   68 2    
   132   67  132 1    
   133   67  133 1    
   134   69   70 1    
   135   69  134 1    
   136   69  135 1    
   137   70   71 1    
   138   71  136 1    
   139   71  137 1    
@<TRIPOS>SUBSTRUCTURE
     1 UNK         1 GROUP             0       ****    0 ROOT    
