@<TRIPOS>MOLECULE
3R137
137   139    1
SMALL
USER_CHARGES


@<TRIPOS>ATOM
      1 CA         25.2403   -4.4216   -3.8694 C.3       0 UNK        -0.2020 
      2 C          25.7060   -4.0371   -2.4753 C.2       0 UNK         0.4855 
      3 O          24.9089   -3.5282   -1.6870 O.2       0 UNK        -0.5197 
      4 N          26.9852   -4.2855   -2.1651 N.am      1 UNK        -0.4892 
      5 CA         27.6091   -4.1115   -0.8469 C.3       1 UNK         0.0835 
      6 C6         29.0789   -4.6065   -0.8233 C.3       12 UNK        -0.0855 
      7 S7         29.2828   -6.2729   -1.5459 S.3       12 UNK        -0.2931 
      8 C8         30.7604   -6.0603   -2.5931 C.3       12 UNK         0.0378 
      9 C9         30.5510   -5.0699   -3.7334 C.ar      12 UNK        -0.0802 
     10 C10        31.1639   -3.8128   -3.6929 C.ar      12 UNK        -0.0944 
     11 C11        31.0207   -2.9163   -4.7551 C.ar      12 UNK        -0.0787 
     12 C12        30.2611   -3.2873   -5.8672 C.ar      12 UNK        -0.0862 
     13 C13        29.6374   -4.5363   -5.9211 C.ar      12 UNK        -0.0733 
     14 C14        29.7838   -5.4236   -4.8486 C.ar      12 UNK        -0.0832 
     15 C15        28.8426   -4.9461   -7.1531 C.3       12 UNK         0.0240 
     16 S16        27.0862   -4.4836   -7.0254 S.3       12 UNK        -0.2522 
     17 C17        27.0284   -2.8689   -7.8754 C.3       12 UNK        -0.0967 
     18 CA         26.1968   -1.8166   -7.0932 C.3       5 UNK         0.0660 
     19 N          26.7567   -1.4928   -5.7754 N.am      5 UNK        -0.4015 
     20 C          27.8680   -0.7889   -5.5146 C.2       4 UNK         0.4946 
     21 O          28.6598   -0.4109   -6.3806 O.2       4 UNK        -0.5353 
     22 CA         28.1132   -0.4182   -4.0352 C.3       4 UNK         0.0277 
     23 CB         28.8317    0.9365   -3.8889 C.3       4 UNK        -0.1981 
     24 N          26.9136   -0.4325   -3.1816 N.am      4 UNK        -0.4209 
     25 C          25.7693    0.2530   -3.3548 C.2       3 UNK         0.4942 
     26 O          25.5448    0.9592   -4.3388 O.2       3 UNK        -0.5208 
     27 CA         24.6631    0.0941   -2.2938 C.3       3 UNK         0.0250 
     28 CB         23.4426   -0.6250   -2.8937 C.3       3 UNK        -0.1990 
     29 N          25.1103   -0.6328   -1.1020 N.am      3 UNK        -0.4232 
     30 C          25.7488   -0.0671   -0.0663 C.2       2 UNK         0.4993 
     31 O          25.9438    1.1445    0.0356 O.2       2 UNK        -0.5286 
     32 CA         26.2903   -1.0052    1.0312 C.3       2 UNK         0.0209 
     33 CB         25.2965   -1.0945    2.2007 C.3       2 UNK        -0.1931 
     34 N          26.6040   -2.3591    0.5581 N.am      2 UNK        -0.4546 
     35 C          27.5181   -2.6462   -0.3792 C.2       1 UNK         0.5154 
     36 O          28.2246   -1.7947   -0.9214 O.2       1 UNK        -0.5181 
     37 C          25.8684   -0.5511   -7.9271 C.2       5 UNK         0.5014 
     38 O          25.8679   -0.6152   -9.1580 O.2       5 UNK        -0.5248 
     39 N          25.5715    0.5700   -7.2460 N.am      6 UNK        -0.4434 
     40 CA         25.2830    1.8959   -7.8008 C.3       6 UNK         0.0363 
     41 CB         23.9164    1.8899   -8.5239 C.3       6 UNK        -0.1936 
     42 C          26.4431    2.4413   -8.6615 C.2       6 UNK         0.5081 
     43 O          27.6042    2.1113   -8.4156 O.2       6 UNK        -0.5248 
     44 N          26.1194    3.2681   -9.6641 N.am      7 UNK        -0.4718 
     45 CA         27.0764    3.8853  -10.5898 C.3       7 UNK         0.0273 
     46 CB         26.3567    4.9892  -11.3827 C.3       7 UNK        -0.1935 
     47 C          27.7687    2.8949  -11.5478 C.2       7 UNK         0.5018 
     48 O          28.7376    3.2794  -12.2032 O.2       7 UNK        -0.5186 
     49 N          27.2727    1.6510  -11.6230 N.am      8 UNK        -0.4240 
     50 CA         27.8229    0.5799  -12.4564 C.3       8 UNK         0.0235 
     51 CB         26.7746   -0.5345  -12.6090 C.3       8 UNK        -0.2000 
     52 C          29.1545    0.0057  -11.9366 C.2       8 UNK         0.4941 
     53 O          29.8433   -0.6640  -12.7082 O.2       8 UNK        -0.5273 
     54 N          29.5026    0.2646  -10.6681 N.am      9 UNK        -0.4262 
     55 CA         30.7709   -0.1462  -10.0675 C.3       9 UNK         0.0264 
     56 CB         30.6188   -1.4934   -9.3465 C.3       9 UNK        -0.1955 
     57 C          31.2952    0.9442   -9.1320 C.2       9 UNK         0.5031 
     58 O          32.3842    1.4645   -9.3764 O.2       9 UNK        -0.5390 
     59 N          30.5336    1.2625   -8.0741 N.am      10 UNK        -0.4204 
     60 CA         30.7758    2.2848   -7.0437 C.3       10 UNK         0.0237 
     61 CB         30.8411    3.6963   -7.6598 C.3       10 UNK        -0.1985 
     62 C          31.9807    2.0277   -6.1151 C.2       10 UNK         0.4970 
     63 O          31.9266    2.4359   -4.9550 O.2       10 UNK        -0.4914 
     64 N          33.0296    1.3663   -6.6198 N.am      11 UNK        -0.4285 
     65 CA         34.2754    1.0091   -5.9181 C.3       11 UNK         0.1007 
     66 C          35.1494    2.2293   -5.4889 C.2       11 UNK         0.5703 
     67 N          34.9605    3.4116   -6.0638 N.am      11 UNK        -0.7361 
     68 O          36.0383    2.1016   -4.6496 O.2       11 UNK        -0.4986 
     69 C69        34.0534   -0.0159   -4.7668 C.3       12 UNK        -0.0947 
     70 S70        33.3826   -1.6126   -5.3456 S.3       12 UNK        -0.2240 
     71 C71        31.6864   -1.5496   -4.6975 C.3       12 UNK         0.0194 
     72 H72        25.9806   -5.0332   -4.3836 H         1 UNK         0.0906 
     73 H73        25.0441   -3.5348   -4.4687 H         1 UNK         0.0906 
     74 H74        24.3181   -4.9987   -3.8079 H         1 UNK         0.0906 
     75 H75        27.5938   -4.6977   -2.8589 H         1 UNK         0.3140 
     76 H76        27.0443   -4.7307   -0.1465 H         1 UNK         0.1085 
     77 H77        29.7265   -3.9049   -1.3494 H         1 UNK         0.0836 
     78 H78        29.4485   -4.6357    0.2034 H         1 UNK         0.0836 
     79 H79        31.5990   -5.7545   -1.9653 H         1 UNK         0.0731 
     80 H80        31.0357   -7.0302   -3.0099 H         1 UNK         0.0731 
     81 H81        31.7643   -3.5328   -2.8380 H         1 UNK         0.1312 
     82 H82        30.1571   -2.5996   -6.6915 H         1 UNK         0.1406 
     83 H83        29.3144   -6.3976   -4.8874 H         1 UNK         0.1631 
     84 H84        29.2829   -4.5166   -8.0543 H         1 UNK         0.0717 
     85 H85        28.9032   -6.0278   -7.2816 H         1 UNK         0.0717 
     86 H86        28.0360   -2.4996   -8.0469 H         1 UNK         0.0934 
     87 H87        26.6010   -3.0489   -8.8634 H         1 UNK         0.0934 
     88 H88        25.2227   -2.2653   -6.8926 H         1 UNK         0.0739 
     89 H89        26.1809   -1.7414   -4.9870 H         1 UNK         0.3093 
     90 H90        28.7736   -1.1906   -3.6382 H         1 UNK         0.0818 
     91 H91        28.9869    1.1937   -2.8411 H         1 UNK         0.0819 
     92 H92        29.8131    0.9082   -4.3573 H         1 UNK         0.0819 
     93 H93        28.2680    1.7450   -4.3557 H         1 UNK         0.0819 
     94 H94        27.0260   -0.9616   -2.3228 H         1 UNK         0.3041 
     95 H95        24.3500    1.0992   -2.0032 H         1 UNK         0.0784 
     96 H96        23.0461   -0.0764   -3.7494 H         1 UNK         0.0793 
     97 H97        23.6888   -1.6295   -3.2374 H         1 UNK         0.0793 
     98 H98        22.6362   -0.7099   -2.1650 H         1 UNK         0.0793 
     99 H99        24.9899   -1.6430   -1.1137 H         1 UNK         0.3024 
    100 H100       27.2178   -0.5614    1.4004 H         1 UNK         0.1171 
    101 H101       25.7052   -1.6774    3.0263 H         1 UNK         0.0786 
    102 H102       25.0634   -0.1028    2.5916 H         1 UNK         0.0786 
    103 H103       24.3552   -1.5543    1.8965 H         1 UNK         0.0786 
    104 H104       26.0250   -3.1062    0.9156 H         1 UNK         0.2977 
    105 H105       25.6330    0.5478   -6.2309 H         1 UNK         0.3127 
    106 H106       25.2044    2.5655   -6.9431 H         1 UNK         0.0770 
    107 H107       23.9503    1.3237   -9.4556 H         1 UNK         0.0814 
    108 H108       23.5820    2.9007   -8.7590 H         1 UNK         0.0814 
    109 H109       23.1442    1.4443   -7.8965 H         1 UNK         0.0814 
    110 H110       25.1443    3.4877   -9.8095 H         1 UNK         0.2983 
    111 H111       27.8651    4.3504   -9.9941 H         1 UNK         0.0947 
    112 H112       27.0462    5.5016  -12.0553 H         1 UNK         0.0806 
    113 H113       25.9354    5.7452  -10.7198 H         1 UNK         0.0806 
    114 H114       25.5472    4.5859  -11.9925 H         1 UNK         0.0806 
    115 H115       26.4929    1.4091  -11.0273 H         1 UNK         0.3000 
    116 H116       28.0191    0.9946  -13.4477 H         1 UNK         0.0850 
    117 H117       25.8391   -0.1502  -13.0156 H         1 UNK         0.0810 
    118 H118       26.5558   -1.0168  -11.6563 H         1 UNK         0.0810 
    119 H119       27.1278   -1.3103  -13.2897 H         1 UNK         0.0810 
    120 H120       28.8962    0.8477  -10.1033 H         1 UNK         0.3040 
    121 H121       31.5219   -0.2689  -10.8515 H         1 UNK         0.0766 
    122 H122       29.8684   -1.4279   -8.5640 H         1 UNK         0.0812 
    123 H123       31.5564   -1.7996   -8.8803 H         1 UNK         0.0812 
    124 H124       30.3205   -2.2838  -10.0354 H         1 UNK         0.0812 
    125 H125       29.6840    0.7286   -7.9104 H         1 UNK         0.3205 
    126 H126       29.8892    2.2543   -6.4090 H         1 UNK         0.0754 
    127 H127       31.7065    3.8206   -8.3111 H         1 UNK         0.0769 
    128 H128       30.9085    4.4574   -6.8815 H         1 UNK         0.0769 
    129 H129       29.9465    3.9102   -8.2452 H         1 UNK         0.0769 
    130 H130       33.0030    1.1585   -7.6136 H         1 UNK         0.2981 
    131 H131       34.8850    0.5083   -6.6707 H         1 UNK         0.0541 
    132 H132       35.5371    4.1914   -5.7898 H         1 UNK         0.3459 
    133 H133       34.2482    3.5299   -6.7658 H         1 UNK         0.3459 
    134 H134       33.4138    0.4055   -3.9903 H         1 UNK         0.0612 
    135 H135       34.9999   -0.2475   -4.2758 H         1 UNK         0.0612 
    136 H136       31.1177   -0.8260   -5.2812 H         1 UNK         0.0624 
    137 H137       31.6928   -1.1877   -3.6683 H         1 UNK         0.0624 
@<TRIPOS>BOND
     1    1    2 1    
     2    1   72 1    
     3    1   73 1    
     4    1   74 1    
     5    2    3 2    
     6    2    4 am   BACKBONE|DICT|INTERRES
     7    4    5 1    
     8    4   75 1    
     9    5    6 1    
    10    5   35 1    
    11    5   76 1    
    12    6    7 1    
    13    6   77 1    
    14    6   78 1    
    15    7    8 1    
    16    8    9 1    
    17    8   79 1    
    18    8   80 1    
    19    9   10 ar   
    20    9   14 ar   
    21   10   11 ar   
    22   10   81 1    
    23   11   12 ar   
    24   11   71 1    
    25   12   13 ar   
    26   12   82 1    
    27   13   14 ar   
    28   13   15 1    
    29   14   83 1    
    30   15   16 1    
    31   15   84 1    
    32   15   85 1    
    33   16   17 1    
    34   17   18 1    
    35   17   86 1    
    36   17   87 1    
    37   18   19 1    
    38   18   37 1    
    39   18   88 1    
    40   19   20 am   BACKBONE|DICT|INTERRES
    41   19   89 1    
    42   20   21 2    
    43   20   22 1    
    44   22   23 1    
    45   22   24 1    
    46   22   90 1    
    47   23   91 1    
    48   23   92 1    
    49   23   93 1    
    50   24   25 am   BACKBONE|DICT|INTERRES
    51   24   94 1    
    52   25   26 2    
    53   25   27 1    
    54   27   28 1    
    55   27   29 1    
    56   27   95 1    
    57   28   96 1    
    58   28   97 1    
    59   28   98 1    
    60   29   30 am   BACKBONE|DICT|INTERRES
    61   29   99 1    
    62   30   31 2    
    63   30   32 1    
    64   32   33 1    
    65   32   34 1    
    66   32  100 1    
    67   33  101 1    
    68   33  102 1    
    69   33  103 1    
    70   34   35 am   BACKBONE|DICT|INTERRES
    71   34  104 1    
    72   35   36 2    
    73   37   38 2    
    74   37   39 am   BACKBONE|DICT|INTERRES
    75   39   40 1    
    76   39  105 1    
    77   40   41 1    
    78   40   42 1    
    79   40  106 1    
    80   41  107 1    
    81   41  108 1    
    82   41  109 1    
    83   42   43 2    
    84   42   44 am   BACKBONE|DICT|INTERRES
    85   44   45 1    
    86   44  110 1    
    87   45   46 1    
    88   45   47 1    
    89   45  111 1    
    90   46  112 1    
    91   46  113 1    
    92   46  114 1    
    93   47   48 2    
    94   47   49 am   BACKBONE|DICT|INTERRES
    95   49   50 1    
    96   49  115 1    
    97   50   51 1    
    98   50   52 1    
    99   50  116 1    
   100   51  117 1    
   101   51  118 1    
   102   51  119 1    
   103   52   53 2    
   104   52   54 am   BACKBONE|DICT|INTERRES
   105   54   55 1    
   106   54  120 1    
   107   55   56 1    
   108   55   57 1    
   109   55  121 1    
   110   56  122 1    
   111   56  123 1    
   112   56  124 1    
   113   57   58 2    
   114   57   59 am   BACKBONE|DICT|INTERRES
   115   59   60 1    
   116   59  125 1    
   117   60   61 1    
   118   60   62 1    
   119   60  126 1    
   120   61  127 1    
   121   61  128 1    
   122   61  129 1    
   123   62   63 2    
   124   62   64 am   BACKBONE|DICT|INTERRES
   125   64   65 1    
   126   64  130 1    
   127   65   66 1    
   128   65   69 1    
   129   65  131 1    
   130   66   67 am   BACKBONE|DICT|INTERRES
   131   66   68 2    
   132   67  132 1    
   133   67  133 1    
   134   69   70 1    
   135   69  134 1    
   136   69  135 1    
   137   70   71 1    
   138   71  136 1    
   139   71  137 1    
@<TRIPOS>SUBSTRUCTURE
     1 UNK         1 GROUP             0       ****    0 ROOT    
