@<TRIPOS>MOLECULE
3R137
137   139    1
SMALL
USER_CHARGES


@<TRIPOS>ATOM
      1 CA         25.1428   -3.2570    3.0225 C.3       0 UNK        -0.2020 
      2 C          26.0813   -3.0511    1.8427 C.2       0 UNK         0.4855 
      3 O          26.7456   -3.9981    1.4224 O.2       0 UNK        -0.5197 
      4 N          26.1383   -1.8200    1.3133 N.am      1 UNK        -0.4892 
      5 CA         26.9613   -1.4029    0.1674 C.3       1 UNK         0.0835 
      6 C6         28.4894   -1.4939    0.4578 C.3       12 UNK        -0.0855 
      7 S7         29.4277   -0.1055   -0.2699 S.3       12 UNK        -0.2931 
      8 C8         30.9852   -0.9108   -0.7648 C.3       12 UNK         0.0378 
      9 C9         31.0113   -1.2505   -2.2488 C.ar      12 UNK        -0.0802 
     10 C10        31.5937   -0.3637   -3.1598 C.ar      12 UNK        -0.0944 
     11 C11        31.6519   -0.6797   -4.5201 C.ar      12 UNK        -0.0787 
     12 C12        31.1269   -1.8954   -4.9680 C.ar      12 UNK        -0.0862 
     13 C13        30.5266   -2.7837   -4.0716 C.ar      12 UNK        -0.0733 
     14 C14        30.4749   -2.4556   -2.7125 C.ar      12 UNK        -0.0832 
     15 C15        29.9510   -4.1062   -4.5610 C.3       12 UNK         0.0240 
     16 S16        28.2508   -3.9347   -5.1969 S.3       12 UNK        -0.2522 
     17 C17        28.5248   -3.4963   -6.9490 C.3       12 UNK        -0.0967 
     18 CA         27.7705   -2.2382   -7.4522 C.3       5 UNK         0.0660 
     19 N          26.3194   -2.3293   -7.2822 N.am      5 UNK        -0.4015 
     20 C          25.4439   -2.4195   -8.2940 C.2       4 UNK         0.4946 
     21 O          25.7707   -2.5675   -9.4725 O.2       4 UNK        -0.5353 
     22 CA         23.9416   -2.3106   -7.9629 C.3       4 UNK         0.0277 
     23 CB         23.3104   -3.7105   -7.8872 C.3       4 UNK        -0.1981 
     24 N          23.6314   -1.5799   -6.7311 N.am      4 UNK        -0.4209 
     25 C          24.0077   -0.3257   -6.4429 C.2       3 UNK         0.4942 
     26 O          24.6426    0.3976   -7.2102 O.2       3 UNK        -0.5208 
     27 CA         23.6947    0.1850   -5.0237 C.3       3 UNK         0.0250 
     28 CB         22.3502    0.9287   -5.0094 C.3       3 UNK        -0.1990 
     29 N          23.6962   -0.8449   -3.9731 N.am      3 UNK        -0.4232 
     30 C          24.6758   -1.7321   -3.7391 C.2       2 UNK         0.4993 
     31 O          25.6857   -1.8254   -4.4393 O.2       2 UNK        -0.5286 
     32 CA         24.4762   -2.6639   -2.5323 C.3       2 UNK         0.0209 
     33 CB         24.8382   -4.1276   -2.8621 C.3       2 UNK        -0.1931 
     34 N          25.1927   -2.1659   -1.3497 N.am      2 UNK        -0.4546 
     35 C          26.5197   -2.0958   -1.1448 C.2       1 UNK         0.5154 
     36 O          27.3627   -2.5579   -1.9103 O.2       1 UNK        -0.5181 
     37 C          28.3171   -0.9219   -6.8696 C.2       5 UNK         0.5014 
     38 O          29.2024   -0.3292   -7.4908 O.2       5 UNK        -0.5248 
     39 N          27.7915   -0.4733   -5.7193 N.am      6 UNK        -0.4434 
     40 CA         28.2732    0.7037   -4.9948 C.3       6 UNK         0.0363 
     41 CB         27.7326    0.6944   -3.5582 C.3       6 UNK        -0.1936 
     42 C          27.9664    2.0338   -5.6930 C.2       6 UNK         0.5081 
     43 O          28.8823    2.8303   -5.8954 O.2       6 UNK        -0.5248 
     44 N          26.6981    2.2538   -6.0670 N.am      7 UNK        -0.4718 
     45 CA         26.2562    3.4740   -6.7550 C.3       7 UNK         0.0273 
     46 CB         24.7432    3.6731   -6.5691 C.3       7 UNK        -0.1935 
     47 C          26.6341    3.4565   -8.2439 C.2       7 UNK         0.5018 
     48 O          26.8579    4.5178   -8.8263 O.2       7 UNK        -0.5186 
     49 N          26.7449    2.2492   -8.8157 N.am      8 UNK        -0.4240 
     50 CA         27.2990    1.9969  -10.1472 C.3       8 UNK         0.0235 
     51 CB         26.9727    0.5505  -10.5527 C.3       8 UNK        -0.2000 
     52 C          28.8189    2.2451  -10.2365 C.2       8 UNK         0.4941 
     53 O          29.3279    2.3994  -11.3470 O.2       8 UNK        -0.5273 
     54 N          29.5087    2.2603   -9.0830 N.am      9 UNK        -0.4262 
     55 CA         30.9591    2.3953   -8.9015 C.3       9 UNK         0.0264 
     56 CB         31.4419    3.7975   -9.3270 C.3       9 UNK        -0.1955 
     57 C          31.7492    1.2548   -9.5725 C.2       9 UNK         0.5031 
     58 O          32.8339    1.4835  -10.1126 O.2       9 UNK        -0.5390 
     59 N          31.1974    0.0339   -9.5125 N.am      10 UNK        -0.4204 
     60 CA         31.7348   -1.1656  -10.1659 C.3       10 UNK         0.0237 
     61 CB         30.6825   -2.2830  -10.1115 C.3       10 UNK        -0.1985 
     62 C          33.0739   -1.6497   -9.5807 C.2       10 UNK         0.4970 
     63 O          33.8011   -2.3763  -10.2586 O.2       10 UNK        -0.4914 
     64 N          33.3768   -1.2290   -8.3476 N.am      11 UNK        -0.4285 
     65 CA         34.6633   -1.4256   -7.6716 C.3       11 UNK         0.1007 
     66 C          35.8304   -0.5542   -8.2279 C.2       11 UNK         0.5703 
     67 N          35.5850    0.4276   -9.0904 N.am      11 UNK        -0.7361 
     68 O          36.9856   -0.7865   -7.8793 O.2       11 UNK        -0.4986 
     69 C69        34.5054   -1.3107   -6.1314 C.3       12 UNK        -0.0947 
     70 S70        34.0444    0.3546   -5.5281 S.3       12 UNK        -0.2240 
     71 C71        32.2233    0.3193   -5.5146 C.3       12 UNK         0.0194 
     72 H72        24.6220   -2.3399    3.2971 H         1 UNK         0.0906 
     73 H73        24.3950   -4.0114    2.7793 H         1 UNK         0.0906 
     74 H74        25.7031   -3.6010    3.8915 H         1 UNK         0.0906 
     75 H75        25.5681   -1.0898    1.7193 H         1 UNK         0.3140 
     76 H76        26.7154   -0.3491    0.0242 H         1 UNK         0.1085 
     77 H77        28.6686   -1.4472    1.5331 H         1 UNK         0.0836 
     78 H78        28.9006   -2.4546    0.1430 H         1 UNK         0.0836 
     79 H79        31.1589   -1.8070   -0.1674 H         1 UNK         0.0731 
     80 H80        31.8096   -0.2360   -0.5293 H         1 UNK         0.0731 
     81 H81        31.9978    0.5773   -2.8123 H         1 UNK         0.1312 
     82 H82        31.1699   -2.1392   -6.0194 H         1 UNK         0.1406 
     83 H83        30.0069   -3.1366   -2.0149 H         1 UNK         0.1631 
     84 H84        29.9339   -4.8239   -3.7396 H         1 UNK         0.0717 
     85 H85        30.5972   -4.5439   -5.3231 H         1 UNK         0.0717 
     86 H86        29.5927   -3.3956   -7.1374 H         1 UNK         0.0934 
     87 H87        28.2132   -4.3546   -7.5462 H         1 UNK         0.0934 
     88 H88        27.9926   -2.1712   -8.5188 H         1 UNK         0.0739 
     89 H89        25.9732   -2.2336   -6.3316 H         1 UNK         0.3093 
     90 H90        23.4733   -1.7656   -8.7852 H         1 UNK         0.0818 
     91 H91        23.4974   -4.2733   -8.8030 H         1 UNK         0.0819 
     92 H92        23.7177   -4.2920   -7.0590 H         1 UNK         0.0819 
     93 H93        22.2290   -3.6540   -7.7609 H         1 UNK         0.0819 
     94 H94        23.1265   -2.0907   -6.0220 H         1 UNK         0.3041 
     95 H95        24.4746    0.9009   -4.7611 H         1 UNK         0.0784 
     96 H96        22.3244    1.7088   -5.7716 H         1 UNK         0.0793 
     97 H97        21.5142    0.2559   -5.2051 H         1 UNK         0.0793 
     98 H98        22.1740    1.4140   -4.0492 H         1 UNK         0.0793 
     99 H99        22.9003   -0.8360   -3.3510 H         1 UNK         0.3024 
    100 H100       23.4164   -2.6549   -2.2722 H         1 UNK         0.1171 
    101 H101       24.6933   -4.7763   -1.9984 H         1 UNK         0.0786 
    102 H102       24.2094   -4.5095   -3.6671 H         1 UNK         0.0786 
    103 H103       25.8726   -4.2342   -3.1898 H         1 UNK         0.0786 
    104 H104       24.6040   -1.7692   -0.6305 H         1 UNK         0.2977 
    105 H105       27.0929   -1.0386   -5.2375 H         1 UNK         0.3127 
    106 H106       29.3573    0.6270   -4.9313 H         1 UNK         0.0770 
    107 H107       26.6439    0.7271   -3.5271 H         1 UNK         0.0814 
    108 H108       28.1062    1.5486   -2.9924 H         1 UNK         0.0814 
    109 H109       28.0572   -0.2041   -3.0339 H         1 UNK         0.0814 
    110 H110       26.0157    1.5140   -5.9670 H         1 UNK         0.2983 
    111 H111       26.7623    4.3282   -6.2986 H         1 UNK         0.0947 
    112 H112       24.4337    4.6437   -6.9586 H         1 UNK         0.0806 
    113 H113       24.4616    3.6427   -5.5165 H         1 UNK         0.0806 
    114 H114       24.1616    2.9187   -7.0977 H         1 UNK         0.0806 
    115 H115       26.4657    1.4436   -8.2704 H         1 UNK         0.3000 
    116 H116       26.8121    2.6739  -10.8524 H         1 UNK         0.0850 
    117 H117       27.3173    0.3413  -11.5663 H         1 UNK         0.0810 
    118 H118       25.8992    0.3610  -10.5302 H         1 UNK         0.0810 
    119 H119       27.4529   -0.1715   -9.8920 H         1 UNK         0.0810 
    120 H120       28.9905    2.0980   -8.2293 H         1 UNK         0.3040 
    121 H121       31.1374    2.2982   -7.8296 H         1 UNK         0.0766 
    122 H122       31.3492    3.9489  -10.4029 H         1 UNK         0.0812 
    123 H123       32.4911    3.9446   -9.0679 H         1 UNK         0.0812 
    124 H124       30.8722    4.5806   -8.8268 H         1 UNK         0.0812 
    125 H125       30.3441   -0.0773   -8.9670 H         1 UNK         0.3205 
    126 H126       31.9130   -0.9166  -11.2141 H         1 UNK         0.0754 
    127 H127       31.0217   -3.1666  -10.6539 H         1 UNK         0.0769 
    128 H128       29.7411   -1.9675  -10.5622 H         1 UNK         0.0769 
    129 H129       30.4814   -2.5879   -9.0863 H         1 UNK         0.0769 
    130 H130       32.7278   -0.6154   -7.8830 H         1 UNK         0.2981 
    131 H131       34.9628   -2.4561   -7.8716 H         1 UNK         0.0541 
    132 H132       34.6417    0.6424   -9.3902 H         1 UNK         0.3459 
    133 H133       36.3556    0.9736   -9.4410 H         1 UNK         0.3459 
    134 H134       35.4425   -1.5861   -5.6445 H         1 UNK         0.0612 
    135 H135       33.7796   -2.0421   -5.7772 H         1 UNK         0.0612 
    136 H136       31.8453    0.1188   -6.5161 H         1 UNK         0.0624 
    137 H137       31.8632    1.3176   -5.2611 H         1 UNK         0.0624 
@<TRIPOS>BOND
     1    1    2 1    
     2    1   72 1    
     3    1   73 1    
     4    1   74 1    
     5    2    3 2    
     6    2    4 am   BACKBONE|DICT|INTERRES
     7    4    5 1    
     8    4   75 1    
     9    5    6 1    
    10    5   35 1    
    11    5   76 1    
    12    6    7 1    
    13    6   77 1    
    14    6   78 1    
    15    7    8 1    
    16    8    9 1    
    17    8   79 1    
    18    8   80 1    
    19    9   10 ar   
    20    9   14 ar   
    21   10   11 ar   
    22   10   81 1    
    23   11   12 ar   
    24   11   71 1    
    25   12   13 ar   
    26   12   82 1    
    27   13   14 ar   
    28   13   15 1    
    29   14   83 1    
    30   15   16 1    
    31   15   84 1    
    32   15   85 1    
    33   16   17 1    
    34   17   18 1    
    35   17   86 1    
    36   17   87 1    
    37   18   19 1    
    38   18   37 1    
    39   18   88 1    
    40   19   20 am   BACKBONE|DICT|INTERRES
    41   19   89 1    
    42   20   21 2    
    43   20   22 1    
    44   22   23 1    
    45   22   24 1    
    46   22   90 1    
    47   23   91 1    
    48   23   92 1    
    49   23   93 1    
    50   24   25 am   BACKBONE|DICT|INTERRES
    51   24   94 1    
    52   25   26 2    
    53   25   27 1    
    54   27   28 1    
    55   27   29 1    
    56   27   95 1    
    57   28   96 1    
    58   28   97 1    
    59   28   98 1    
    60   29   30 am   BACKBONE|DICT|INTERRES
    61   29   99 1    
    62   30   31 2    
    63   30   32 1    
    64   32   33 1    
    65   32   34 1    
    66   32  100 1    
    67   33  101 1    
    68   33  102 1    
    69   33  103 1    
    70   34   35 am   BACKBONE|DICT|INTERRES
    71   34  104 1    
    72   35   36 2    
    73   37   38 2    
    74   37   39 am   BACKBONE|DICT|INTERRES
    75   39   40 1    
    76   39  105 1    
    77   40   41 1    
    78   40   42 1    
    79   40  106 1    
    80   41  107 1    
    81   41  108 1    
    82   41  109 1    
    83   42   43 2    
    84   42   44 am   BACKBONE|DICT|INTERRES
    85   44   45 1    
    86   44  110 1    
    87   45   46 1    
    88   45   47 1    
    89   45  111 1    
    90   46  112 1    
    91   46  113 1    
    92   46  114 1    
    93   47   48 2    
    94   47   49 am   BACKBONE|DICT|INTERRES
    95   49   50 1    
    96   49  115 1    
    97   50   51 1    
    98   50   52 1    
    99   50  116 1    
   100   51  117 1    
   101   51  118 1    
   102   51  119 1    
   103   52   53 2    
   104   52   54 am   BACKBONE|DICT|INTERRES
   105   54   55 1    
   106   54  120 1    
   107   55   56 1    
   108   55   57 1    
   109   55  121 1    
   110   56  122 1    
   111   56  123 1    
   112   56  124 1    
   113   57   58 2    
   114   57   59 am   BACKBONE|DICT|INTERRES
   115   59   60 1    
   116   59  125 1    
   117   60   61 1    
   118   60   62 1    
   119   60  126 1    
   120   61  127 1    
   121   61  128 1    
   122   61  129 1    
   123   62   63 2    
   124   62   64 am   BACKBONE|DICT|INTERRES
   125   64   65 1    
   126   64  130 1    
   127   65   66 1    
   128   65   69 1    
   129   65  131 1    
   130   66   67 am   BACKBONE|DICT|INTERRES
   131   66   68 2    
   132   67  132 1    
   133   67  133 1    
   134   69   70 1    
   135   69  134 1    
   136   69  135 1    
   137   70   71 1    
   138   71  136 1    
   139   71  137 1    
@<TRIPOS>SUBSTRUCTURE
     1 UNK         1 GROUP             0       ****    0 ROOT    
