@<TRIPOS>MOLECULE
3R137
137   139    1
SMALL
USER_CHARGES


@<TRIPOS>ATOM
      1 CA         24.4501   -5.7344    2.6825 C.3       0 UNK        -0.2020 
      2 C          25.3880   -4.7784    1.9607 C.2       0 UNK         0.4855 
      3 O          25.8259   -3.7890    2.5490 O.2       0 UNK        -0.5197 
      4 N          25.7075   -5.0685    0.6930 N.am      1 UNK        -0.4892 
      5 CA         26.5341   -4.2221   -0.1716 C.3       1 UNK         0.0835 
      6 C6         27.0610   -5.0315   -1.3916 C.3       12 UNK        -0.0855 
      7 S7         28.0090   -4.0739   -2.6311 S.3       12 UNK        -0.2931 
      8 C8         29.5850   -3.8555   -1.7539 C.3       12 UNK         0.0378 
      9 C9         30.4766   -2.8608   -2.4769 C.ar      12 UNK        -0.0802 
     10 C10        31.5073   -3.3169   -3.3016 C.ar      12 UNK        -0.0944 
     11 C11        32.3444   -2.4108   -3.9584 C.ar      12 UNK        -0.0787 
     12 C12        32.1523   -1.0380   -3.7695 C.ar      12 UNK        -0.0862 
     13 C13        31.1285   -0.5659   -2.9395 C.ar      12 UNK        -0.0733 
     14 C14        30.2885   -1.4851   -2.3026 C.ar      12 UNK        -0.0832 
     15 C15        30.9867    0.9266   -2.6565 C.3       12 UNK         0.0240 
     16 S16        30.9343    1.9491   -4.1655 S.3       12 UNK        -0.2522 
     17 C17        29.1748    2.4118   -4.3119 C.3       12 UNK        -0.0967 
     18 CA         28.5877    1.9269   -5.6559 C.3       5 UNK         0.0660 
     19 N          28.3573    0.4833   -5.6699 N.am      5 UNK        -0.4015 
     20 C          28.3518   -0.2652   -6.7782 C.2       4 UNK         0.4946 
     21 O          28.5888    0.1758   -7.9052 O.2       4 UNK        -0.5353 
     22 CA         28.0169   -1.7549   -6.6022 C.3       4 UNK         0.0277 
     23 CB         29.2750   -2.5394   -6.2025 C.3       4 UNK        -0.1981 
     24 N          26.9501   -1.9969   -5.6242 N.am      4 UNK        -0.4209 
     25 C          25.6879   -1.5718   -5.7788 C.2       3 UNK         0.4942 
     26 O          25.2999   -0.9244   -6.7496 O.2       3 UNK        -0.5208 
     27 CA         24.6887   -1.8911   -4.6568 C.3       3 UNK         0.0250 
     28 CB         24.2120   -3.3483   -4.7661 C.3       3 UNK        -0.1990 
     29 N          25.1619   -1.6448   -3.2923 N.am      3 UNK        -0.4232 
     30 C          25.8191   -0.5808   -2.8122 C.2       2 UNK         0.4993 
     31 O          26.2407    0.3424   -3.5087 O.2       2 UNK        -0.5286 
     32 CA         26.0707   -0.5389   -1.2923 C.3       2 UNK         0.0209 
     33 CB         24.8729    0.0887   -0.5537 C.3       2 UNK        -0.1931 
     34 N          26.4603   -1.8313   -0.7033 N.am      2 UNK        -0.4546 
     35 C          25.7492   -2.9653   -0.6012 C.2       1 UNK         0.5154 
     36 O          24.5605   -3.0671   -0.9169 O.2       1 UNK        -0.5181 
     37 C          27.3071    2.6940   -6.0317 C.2       5 UNK         0.5014 
     38 O          27.4037    3.6904   -6.7473 O.2       5 UNK        -0.5248 
     39 N          26.1327    2.2108   -5.5987 N.am      6 UNK        -0.4434 
     40 CA         24.8199    2.7641   -5.9542 C.3       6 UNK         0.0363 
     41 CB         23.7224    2.0543   -5.1472 C.3       6 UNK        -0.1936 
     42 C          24.5220    2.6886   -7.4635 C.2       6 UNK         0.5081 
     43 O          23.9442    3.6246   -8.0158 O.2       6 UNK        -0.5248 
     44 N          24.9653    1.6024   -8.1113 N.am      7 UNK        -0.4718 
     45 CA         24.9349    1.4121   -9.5648 C.3       7 UNK         0.0273 
     46 CB         25.0891   -0.0885   -9.8671 C.3       7 UNK        -0.1935 
     47 C          26.0104    2.2181  -10.3213 C.2       7 UNK         0.5018 
     48 O          25.9965    2.2100  -11.5526 O.2       7 UNK        -0.5186 
     49 N          26.9308    2.8669   -9.5896 N.am      8 UNK        -0.4240 
     50 CA         28.0892    3.6317  -10.0686 C.3       8 UNK         0.0235 
     51 CB         27.6445    4.8621  -10.8884 C.3       8 UNK        -0.2000 
     52 C          29.1439    2.7753  -10.7978 C.2       8 UNK         0.4941 
     53 O          29.9318    3.3176  -11.5750 O.2       8 UNK        -0.5273 
     54 N          29.1613    1.4631  -10.5262 N.am      9 UNK        -0.4262 
     55 CA         30.1540    0.5252  -11.0491 C.3       9 UNK         0.0264 
     56 CB         29.5329   -0.8782  -11.1508 C.3       9 UNK        -0.1955 
     57 C          31.4069    0.5014  -10.1636 C.2       9 UNK         0.5031 
     58 O          32.5192    0.4503  -10.6905 O.2       9 UNK        -0.5390 
     59 N          31.1963    0.5133   -8.8367 N.am      10 UNK        -0.4204 
     60 CA         32.2002    0.5030   -7.7622 C.3       10 UNK         0.0237 
     61 CB         32.8727    1.8863   -7.6539 C.3       10 UNK        -0.1985 
     62 C          33.2197   -0.6512   -7.8714 C.2       10 UNK         0.4970 
     63 O          34.3786   -0.4869   -7.4869 O.2       10 UNK        -0.4914 
     64 N          32.7618   -1.7890   -8.4114 N.am      11 UNK        -0.4285 
     65 CA         33.5459   -2.9955   -8.7253 C.3       11 UNK         0.1007 
     66 C          34.5944   -2.8083   -9.8653 C.2       11 UNK         0.5703 
     67 N          34.5275   -1.7513  -10.6679 N.am      11 UNK        -0.7361 
     68 O          35.4672   -3.6532  -10.0525 O.2       11 UNK        -0.4986 
     69 C69        34.1379   -3.6984   -7.4686 C.3       12 UNK        -0.0947 
     70 S70        32.8809   -3.9960   -6.1789 S.3       12 UNK        -0.2240 
     71 C71        33.4781   -2.9107   -4.8424 C.3       12 UNK         0.0194 
     72 H72        23.5480   -5.2093    2.9957 H         1 UNK         0.0906 
     73 H73        24.1529   -6.5708    2.0500 H         1 UNK         0.0906 
     74 H74        24.9356   -6.1375    3.5709 H         1 UNK         0.0906 
     75 H75        25.2891   -5.8742    0.2497 H         1 UNK         0.3140 
     76 H76        27.3931   -3.8987    0.4198 H         1 UNK         0.1085 
     77 H77        26.2231   -5.4920   -1.9188 H         1 UNK         0.0836 
     78 H78        27.6823   -5.8595   -1.0460 H         1 UNK         0.0836 
     79 H79        30.0820   -4.8226   -1.6605 H         1 UNK         0.0731 
     80 H80        29.4066   -3.5034   -0.7378 H         1 UNK         0.0731 
     81 H81        31.6589   -4.3793   -3.4367 H         1 UNK         0.1312 
     82 H82        32.8135   -0.3316   -4.2530 H         1 UNK         0.1406 
     83 H83        29.5030   -1.1321   -1.6496 H         1 UNK         0.1631 
     84 H84        30.1155    1.1298   -2.0326 H         1 UNK         0.0717 
     85 H85        31.8509    1.2391   -2.0690 H         1 UNK         0.0717 
     86 H86        28.5923    2.0304   -3.4716 H         1 UNK         0.0934 
     87 H87        29.1302    3.5007   -4.2399 H         1 UNK         0.0934 
     88 H88        29.3160    2.1630   -6.4361 H         1 UNK         0.0739 
     89 H89        28.0887    0.0602   -4.7919 H         1 UNK         0.3093 
     90 H90        27.6730   -2.1286   -7.5691 H         1 UNK         0.0818 
     91 H91        30.0750   -2.4005   -6.9305 H         1 UNK         0.0819 
     92 H92        29.0775   -3.6096   -6.1394 H         1 UNK         0.0819 
     93 H93        29.6577   -2.2141   -5.2357 H         1 UNK         0.0819 
     94 H94        27.1893   -2.5204   -4.7928 H         1 UNK         0.3041 
     95 H95        23.8210   -1.2471   -4.8048 H         1 UNK         0.0784 
     96 H96        23.8381   -3.5655   -5.7679 H         1 UNK         0.0793 
     97 H97        25.0179   -4.0531   -4.5565 H         1 UNK         0.0793 
     98 H98        23.4002   -3.5533   -4.0678 H         1 UNK         0.0793 
     99 H99        24.8572   -2.3173   -2.5929 H         1 UNK         0.3024 
    100 H100       26.9248    0.1246   -1.1456 H         1 UNK         0.1171 
    101 H101       25.0708    0.1817    0.5141 H         1 UNK         0.0786 
    102 H102       24.6655    1.0901   -0.9335 H         1 UNK         0.0786 
    103 H103       23.9611   -0.4965   -0.6758 H         1 UNK         0.0786 
    104 H104       27.4305   -1.8811   -0.4278 H         1 UNK         0.2977 
    105 H105       26.1381    1.4194   -4.9560 H         1 UNK         0.3127 
    106 H106       24.8221    3.8187   -5.6707 H         1 UNK         0.0770 
    107 H107       23.6499    1.0003   -5.4122 H         1 UNK         0.0814 
    108 H108       22.7474    2.5049   -5.3369 H         1 UNK         0.0814 
    109 H109       23.9088    2.1202   -4.0751 H         1 UNK         0.0814 
    110 H110       25.3441    0.8320   -7.5650 H         1 UNK         0.2983 
    111 H111       23.9626    1.7411   -9.9376 H         1 UNK         0.0947 
    112 H112       25.0357   -0.2839  -10.9389 H         1 UNK         0.0806 
    113 H113       24.2987   -0.6711   -9.3936 H         1 UNK         0.0806 
    114 H114       26.0461   -0.4733   -9.5112 H         1 UNK         0.0806 
    115 H115       26.8367    2.8343   -8.5809 H         1 UNK         0.3000 
    116 H116       28.5879    4.0043   -9.1729 H         1 UNK         0.0850 
    117 H117       28.4900    5.5176  -11.1008 H         1 UNK         0.0810 
    118 H118       26.9071    5.4539  -10.3460 H         1 UNK         0.0810 
    119 H119       27.2087    4.5765  -11.8461 H         1 UNK         0.0810 
    120 H120       28.5205    1.1044   -9.8275 H         1 UNK         0.3040 
    121 H121       30.4544    0.8350  -12.0526 H         1 UNK         0.0766 
    122 H122       28.6725   -0.8796  -11.8203 H         1 UNK         0.0812 
    123 H123       29.2000   -1.2517  -10.1816 H         1 UNK         0.0812 
    124 H124       30.2529   -1.5950  -11.5482 H         1 UNK         0.0812 
    125 H125       30.2254    0.4960   -8.5227 H         1 UNK         0.3205 
    126 H126       31.6518    0.3292   -6.8349 H         1 UNK         0.0754 
    127 H127       33.5315    1.9366   -6.7860 H         1 UNK         0.0769 
    128 H128       32.1314    2.6773   -7.5391 H         1 UNK         0.0769 
    129 H129       33.4725    2.1119   -8.5363 H         1 UNK         0.0769 
    130 H130       31.7991   -1.8143   -8.7092 H         1 UNK         0.2981 
    131 H131       32.8192   -3.6878   -9.1515 H         1 UNK         0.0541 
    132 H132       33.8153   -1.0381  -10.5462 H         1 UNK         0.3459 
    133 H133       35.2067   -1.6549  -11.4055 H         1 UNK         0.3459 
    134 H134       34.5531   -4.6699   -7.7418 H         1 UNK         0.0612 
    135 H135       34.9710   -3.1239   -7.0614 H         1 UNK         0.0612 
    136 H136       34.0162   -2.0636   -5.2684 H         1 UNK         0.0624 
    137 H137       34.1981   -3.4589   -4.2338 H         1 UNK         0.0624 
@<TRIPOS>BOND
     1    1    2 1    
     2    1   72 1    
     3    1   73 1    
     4    1   74 1    
     5    2    3 2    
     6    2    4 am   BACKBONE|DICT|INTERRES
     7    4    5 1    
     8    4   75 1    
     9    5    6 1    
    10    5   35 1    
    11    5   76 1    
    12    6    7 1    
    13    6   77 1    
    14    6   78 1    
    15    7    8 1    
    16    8    9 1    
    17    8   79 1    
    18    8   80 1    
    19    9   10 ar   
    20    9   14 ar   
    21   10   11 ar   
    22   10   81 1    
    23   11   12 ar   
    24   11   71 1    
    25   12   13 ar   
    26   12   82 1    
    27   13   14 ar   
    28   13   15 1    
    29   14   83 1    
    30   15   16 1    
    31   15   84 1    
    32   15   85 1    
    33   16   17 1    
    34   17   18 1    
    35   17   86 1    
    36   17   87 1    
    37   18   19 1    
    38   18   37 1    
    39   18   88 1    
    40   19   20 am   BACKBONE|DICT|INTERRES
    41   19   89 1    
    42   20   21 2    
    43   20   22 1    
    44   22   23 1    
    45   22   24 1    
    46   22   90 1    
    47   23   91 1    
    48   23   92 1    
    49   23   93 1    
    50   24   25 am   BACKBONE|DICT|INTERRES
    51   24   94 1    
    52   25   26 2    
    53   25   27 1    
    54   27   28 1    
    55   27   29 1    
    56   27   95 1    
    57   28   96 1    
    58   28   97 1    
    59   28   98 1    
    60   29   30 am   BACKBONE|DICT|INTERRES
    61   29   99 1    
    62   30   31 2    
    63   30   32 1    
    64   32   33 1    
    65   32   34 1    
    66   32  100 1    
    67   33  101 1    
    68   33  102 1    
    69   33  103 1    
    70   34   35 am   BACKBONE|DICT|INTERRES
    71   34  104 1    
    72   35   36 2    
    73   37   38 2    
    74   37   39 am   BACKBONE|DICT|INTERRES
    75   39   40 1    
    76   39  105 1    
    77   40   41 1    
    78   40   42 1    
    79   40  106 1    
    80   41  107 1    
    81   41  108 1    
    82   41  109 1    
    83   42   43 2    
    84   42   44 am   BACKBONE|DICT|INTERRES
    85   44   45 1    
    86   44  110 1    
    87   45   46 1    
    88   45   47 1    
    89   45  111 1    
    90   46  112 1    
    91   46  113 1    
    92   46  114 1    
    93   47   48 2    
    94   47   49 am   BACKBONE|DICT|INTERRES
    95   49   50 1    
    96   49  115 1    
    97   50   51 1    
    98   50   52 1    
    99   50  116 1    
   100   51  117 1    
   101   51  118 1    
   102   51  119 1    
   103   52   53 2    
   104   52   54 am   BACKBONE|DICT|INTERRES
   105   54   55 1    
   106   54  120 1    
   107   55   56 1    
   108   55   57 1    
   109   55  121 1    
   110   56  122 1    
   111   56  123 1    
   112   56  124 1    
   113   57   58 2    
   114   57   59 am   BACKBONE|DICT|INTERRES
   115   59   60 1    
   116   59  125 1    
   117   60   61 1    
   118   60   62 1    
   119   60  126 1    
   120   61  127 1    
   121   61  128 1    
   122   61  129 1    
   123   62   63 2    
   124   62   64 am   BACKBONE|DICT|INTERRES
   125   64   65 1    
   126   64  130 1    
   127   65   66 1    
   128   65   69 1    
   129   65  131 1    
   130   66   67 am   BACKBONE|DICT|INTERRES
   131   66   68 2    
   132   67  132 1    
   133   67  133 1    
   134   69   70 1    
   135   69  134 1    
   136   69  135 1    
   137   70   71 1    
   138   71  136 1    
   139   71  137 1    
@<TRIPOS>SUBSTRUCTURE
     1 UNK         1 GROUP             0       ****    0 ROOT    
