@<TRIPOS>MOLECULE
3R137
137   139    1
SMALL
USER_CHARGES


@<TRIPOS>ATOM
      1 CA         26.3514   -5.9263    1.2021 C.3       0 UNK        -0.2020 
      2 C          26.5762   -4.6922    0.3419 C.2       0 UNK         0.4855 
      3 O          26.5551   -3.5727    0.8559 O.2       0 UNK        -0.5197 
      4 N          26.7914   -4.8816   -0.9659 N.am      1 UNK        -0.4892 
      5 CA         27.0085   -3.8135   -1.9460 C.3       1 UNK         0.0835 
      6 C6         27.7873   -4.3138   -3.1917 C.3       12 UNK        -0.0855 
      7 S7         29.4272   -5.0091   -2.7907 S.3       12 UNK        -0.2931 
      8 C8         30.4975   -4.1935   -4.0328 C.3       12 UNK         0.0378 
      9 C9         30.9160   -2.7510   -3.7297 C.ar      12 UNK        -0.0802 
     10 C10        31.8555   -2.1436   -4.5701 C.ar      12 UNK        -0.0944 
     11 C11        32.2965   -0.8380   -4.3314 C.ar      12 UNK        -0.0787 
     12 C12        31.7699   -0.1195   -3.2550 C.ar      12 UNK        -0.0862 
     13 C13        30.8300   -0.7087   -2.4063 C.ar      12 UNK        -0.0733 
     14 C14        30.4182   -2.0226   -2.6416 C.ar      12 UNK        -0.0832 
     15 C15        30.2739    0.0637   -1.2190 C.3       12 UNK         0.0240 
     16 S16        29.0671    1.3264   -1.7294 S.3       12 UNK        -0.2522 
     17 C17        27.7520    0.3261   -2.5074 C.3       12 UNK        -0.0967 
     18 CA         27.7665    0.4225   -4.0552 C.3       5 UNK         0.0660 
     19 N          26.9322   -0.6022   -4.6871 N.am      5 UNK        -0.4015 
     20 C          27.0635   -0.9933   -5.9641 C.2       4 UNK         0.4946 
     21 O          27.9950   -0.6468   -6.6908 O.2       4 UNK        -0.5353 
     22 CA         25.9550   -1.8819   -6.5576 C.3       4 UNK         0.0277 
     23 CB         26.3845   -3.3560   -6.6285 C.3       4 UNK        -0.1981 
     24 N          24.6799   -1.7698   -5.8426 N.am      4 UNK        -0.4209 
     25 C          23.8518   -0.7211   -5.9610 C.2       3 UNK         0.4942 
     26 O          24.0727    0.2356   -6.7000 O.2       3 UNK        -0.5208 
     27 CA         22.5946   -0.6977   -5.0739 C.3       3 UNK         0.0250 
     28 CB         21.4329   -1.4236   -5.7697 C.3       3 UNK        -0.1990 
     29 N          22.7981   -1.2658   -3.7391 N.am      3 UNK        -0.4232 
     30 C          23.7084   -0.8457   -2.8499 C.2       2 UNK         0.4993 
     31 O          24.4833    0.0893   -3.0609 O.2       2 UNK        -0.5286 
     32 CA         23.8300   -1.6341   -1.5312 C.3       2 UNK         0.0209 
     33 CB         22.6695   -2.6234   -1.2782 C.3       2 UNK        -0.1931 
     34 N          25.1156   -2.3385   -1.4294 N.am      2 UNK        -0.4546 
     35 C          25.6594   -3.1708   -2.3304 C.2       1 UNK         0.5154 
     36 O          25.1326   -3.4491   -3.4098 O.2       1 UNK        -0.5181 
     37 C          27.3303    1.8144   -4.5519 C.2       5 UNK         0.5014 
     38 O          28.1752    2.5917   -4.9956 O.2       5 UNK        -0.5248 
     39 N          26.0156    2.0841   -4.5051 N.am      6 UNK        -0.4434 
     40 CA         25.3961    3.3388   -4.9432 C.3       6 UNK         0.0363 
     41 CB         23.8942    3.3106   -4.6188 C.3       6 UNK        -0.1936 
     42 C          25.6266    3.6510   -6.4326 C.2       6 UNK         0.5081 
     43 O          25.9419    4.7924   -6.7696 O.2       6 UNK        -0.5248 
     44 N          25.4915    2.6321   -7.2922 N.am      7 UNK        -0.4718 
     45 CA         25.7677    2.7179   -8.7291 C.3       7 UNK         0.0273 
     46 CB         25.0525    1.5613   -9.4471 C.3       7 UNK        -0.1935 
     47 C          27.2691    2.7011   -9.0703 C.2       7 UNK         0.5018 
     48 O          27.6168    3.0601  -10.1956 O.2       7 UNK        -0.5186 
     49 N          28.1122    2.2744   -8.1158 N.am      8 UNK        -0.4240 
     50 CA         29.5582    2.0504   -8.2198 C.3       8 UNK         0.0235 
     51 CB         30.3145    3.3837   -8.3944 C.3       8 UNK        -0.2000 
     52 C          29.8880    1.0226   -9.3159 C.2       8 UNK         0.4941 
     53 O          30.4192    1.3850  -10.3684 O.2       8 UNK        -0.5273 
     54 N          29.5125   -0.2383   -9.0615 N.am      9 UNK        -0.4262 
     55 CA         29.6914   -1.3913   -9.9480 C.3       9 UNK         0.0264 
     56 CB         28.9562   -2.5997   -9.3441 C.3       9 UNK        -0.1955 
     57 C          31.1756   -1.7023  -10.2224 C.2       9 UNK         0.5031 
     58 O          31.7752   -2.5274   -9.5285 O.2       9 UNK        -0.5390 
     59 N          31.7355   -1.0093  -11.2227 N.am      10 UNK        -0.4204 
     60 CA         33.1294   -0.9997  -11.6782 C.3       10 UNK         0.0237 
     61 CB         33.6090   -2.3945  -12.1313 C.3       10 UNK        -0.1985 
     62 C          34.0785   -0.3606  -10.6527 C.2       10 UNK         0.4970 
     63 O          34.6656    0.6804  -10.9495 O.2       10 UNK        -0.4914 
     64 N          34.1993   -0.9874   -9.4758 N.am      11 UNK        -0.4285 
     65 CA         35.0067   -0.5461   -8.3252 C.3       11 UNK         0.1007 
     66 C          36.5366   -0.4030   -8.6031 C.2       11 UNK         0.5703 
     67 N          37.0870   -1.0813   -9.6035 N.am      11 UNK        -0.7361 
     68 O          37.2466    0.2982   -7.8857 O.2       11 UNK        -0.4986 
     69 C69        34.3826    0.6899   -7.6117 C.3       12 UNK        -0.0947 
     70 S70        32.7831    0.2858   -6.8312 S.3       12 UNK        -0.2240 
     71 C71        33.3893   -0.2312   -5.1966 C.3       12 UNK         0.0194 
     72 H72        25.3706   -5.8801    1.6746 H         1 UNK         0.0906 
     73 H73        26.4046   -6.8455    0.6191 H         1 UNK         0.0906 
     74 H74        27.1057   -5.9784    1.9867 H         1 UNK         0.0906 
     75 H75        26.7942   -5.8203   -1.3400 H         1 UNK         0.3140 
     76 H76        27.6062   -3.0341   -1.4721 H         1 UNK         0.1085 
     77 H77        27.9213   -3.4909   -3.8962 H         1 UNK         0.0836 
     78 H78        27.2201   -5.0826   -3.7201 H         1 UNK         0.0836 
     79 H79        30.0047   -4.2262   -5.0058 H         1 UNK         0.0731 
     80 H80        31.4013   -4.7969   -4.1299 H         1 UNK         0.0731 
     81 H81        32.2638   -2.6957   -5.4062 H         1 UNK         0.1312 
     82 H82        32.1024    0.8920   -3.0646 H         1 UNK         0.1406 
     83 H83        29.7159   -2.4714   -1.9589 H         1 UNK         0.1631 
     84 H84        31.0934    0.5534   -0.6910 H         1 UNK         0.0717 
     85 H85        29.8071   -0.6088   -0.4975 H         1 UNK         0.0717 
     86 H86        27.8683   -0.7110   -2.1962 H         1 UNK         0.0934 
     87 H87        26.7948    0.6483   -2.0955 H         1 UNK         0.0934 
     88 H88        28.7948    0.2595   -4.3880 H         1 UNK         0.0739 
     89 H89        26.0947   -0.8685   -4.1864 H         1 UNK         0.3093 
     90 H90        25.8035   -1.5386   -7.5836 H         1 UNK         0.0818 
     91 H91        27.3906   -3.4608   -7.0338 H         1 UNK         0.0819 
     92 H92        25.7158   -3.9260   -7.2735 H         1 UNK         0.0819 
     93 H93        26.3800   -3.8326   -5.6514 H         1 UNK         0.0819 
     94 H94        24.4719   -2.4930   -5.1611 H         1 UNK         0.3041 
     95 H95        22.3099    0.3476   -4.9400 H         1 UNK         0.0784 
     96 H96        21.2475   -1.0030   -6.7593 H         1 UNK         0.0793 
     97 H97        21.6401   -2.4865   -5.9009 H         1 UNK         0.0793 
     98 H98        20.5072   -1.3284   -5.2016 H         1 UNK         0.0793 
     99 H99        22.2294   -2.0634   -3.4941 H         1 UNK         0.3024 
    100 H100       23.8125   -0.8883   -0.7346 H         1 UNK         0.1171 
    101 H101       22.7575   -3.0776   -0.2910 H         1 UNK         0.0786 
    102 H102       21.7027   -2.1187   -1.3079 H         1 UNK         0.0786 
    103 H103       22.6492   -3.4348   -2.0070 H         1 UNK         0.0786 
    104 H104       25.6074   -2.2315   -0.5487 H         1 UNK         0.2977 
    105 H105       25.3953    1.3918   -4.0905 H         1 UNK         0.3127 
    106 H106       25.8535    4.1439   -4.3643 H         1 UNK         0.0770 
    107 H107       23.3773    2.5265   -5.1722 H         1 UNK         0.0814 
    108 H108       23.4219    4.2585   -4.8801 H         1 UNK         0.0814 
    109 H109       23.7191    3.1423   -3.5560 H         1 UNK         0.0814 
    110 H110       25.1415    1.7388   -6.9500 H         1 UNK         0.2983 
    111 H111       25.3584    3.6582   -9.1052 H         1 UNK         0.0947 
    112 H112       25.1915    1.6242  -10.5272 H         1 UNK         0.0806 
    113 H113       23.9791    1.5789   -9.2571 H         1 UNK         0.0806 
    114 H114       25.4337    0.5914   -9.1249 H         1 UNK         0.0806 
    115 H115       27.7089    2.0273   -7.2217 H         1 UNK         0.3000 
    116 H116       29.8739    1.6159   -7.2693 H         1 UNK         0.0850 
    117 H117       31.3922    3.2159   -8.4077 H         1 UNK         0.0810 
    118 H118       30.1011    4.0675   -7.5729 H         1 UNK         0.0810 
    119 H119       30.0518    3.8850   -9.3264 H         1 UNK         0.0810 
    120 H120       29.0531   -0.4259   -8.1703 H         1 UNK         0.3040 
    121 H121       29.2136   -1.1571  -10.9016 H         1 UNK         0.0766 
    122 H122       27.8878   -2.4050   -9.2510 H         1 UNK         0.0812 
    123 H123       29.3418   -2.8482   -8.3544 H         1 UNK         0.0812 
    124 H124       29.0724   -3.4837   -9.9723 H         1 UNK         0.0812 
    125 H125       31.1667   -0.2601  -11.6019 H         1 UNK         0.3205 
    126 H126       33.1431   -0.3555  -12.5590 H         1 UNK         0.0754 
    127 H127       34.6181   -2.3419  -12.5421 H         1 UNK         0.0769 
    128 H128       32.9636   -2.7976  -12.9117 H         1 UNK         0.0769 
    129 H129       33.6309   -3.1151  -11.3137 H         1 UNK         0.0769 
    130 H130       33.6047   -1.7962   -9.3218 H         1 UNK         0.2981 
    131 H131       34.9628   -1.3766   -7.6205 H         1 UNK         0.0541 
    132 H132       36.5222   -1.6720  -10.1921 H         1 UNK         0.3459 
    133 H133       38.0768   -0.9955   -9.7722 H         1 UNK         0.3459 
    134 H134       35.0440    1.0827   -6.8379 H         1 UNK         0.0612 
    135 H135       34.2319    1.5083   -8.3170 H         1 UNK         0.0612 
    136 H136       34.1875   -0.9641   -5.3214 H         1 UNK         0.0624 
    137 H137       33.8392    0.6285   -4.6973 H         1 UNK         0.0624 
@<TRIPOS>BOND
     1    1    2 1    
     2    1   72 1    
     3    1   73 1    
     4    1   74 1    
     5    2    3 2    
     6    2    4 am   BACKBONE|DICT|INTERRES
     7    4    5 1    
     8    4   75 1    
     9    5    6 1    
    10    5   35 1    
    11    5   76 1    
    12    6    7 1    
    13    6   77 1    
    14    6   78 1    
    15    7    8 1    
    16    8    9 1    
    17    8   79 1    
    18    8   80 1    
    19    9   10 ar   
    20    9   14 ar   
    21   10   11 ar   
    22   10   81 1    
    23   11   12 ar   
    24   11   71 1    
    25   12   13 ar   
    26   12   82 1    
    27   13   14 ar   
    28   13   15 1    
    29   14   83 1    
    30   15   16 1    
    31   15   84 1    
    32   15   85 1    
    33   16   17 1    
    34   17   18 1    
    35   17   86 1    
    36   17   87 1    
    37   18   19 1    
    38   18   37 1    
    39   18   88 1    
    40   19   20 am   BACKBONE|DICT|INTERRES
    41   19   89 1    
    42   20   21 2    
    43   20   22 1    
    44   22   23 1    
    45   22   24 1    
    46   22   90 1    
    47   23   91 1    
    48   23   92 1    
    49   23   93 1    
    50   24   25 am   BACKBONE|DICT|INTERRES
    51   24   94 1    
    52   25   26 2    
    53   25   27 1    
    54   27   28 1    
    55   27   29 1    
    56   27   95 1    
    57   28   96 1    
    58   28   97 1    
    59   28   98 1    
    60   29   30 am   BACKBONE|DICT|INTERRES
    61   29   99 1    
    62   30   31 2    
    63   30   32 1    
    64   32   33 1    
    65   32   34 1    
    66   32  100 1    
    67   33  101 1    
    68   33  102 1    
    69   33  103 1    
    70   34   35 am   BACKBONE|DICT|INTERRES
    71   34  104 1    
    72   35   36 2    
    73   37   38 2    
    74   37   39 am   BACKBONE|DICT|INTERRES
    75   39   40 1    
    76   39  105 1    
    77   40   41 1    
    78   40   42 1    
    79   40  106 1    
    80   41  107 1    
    81   41  108 1    
    82   41  109 1    
    83   42   43 2    
    84   42   44 am   BACKBONE|DICT|INTERRES
    85   44   45 1    
    86   44  110 1    
    87   45   46 1    
    88   45   47 1    
    89   45  111 1    
    90   46  112 1    
    91   46  113 1    
    92   46  114 1    
    93   47   48 2    
    94   47   49 am   BACKBONE|DICT|INTERRES
    95   49   50 1    
    96   49  115 1    
    97   50   51 1    
    98   50   52 1    
    99   50  116 1    
   100   51  117 1    
   101   51  118 1    
   102   51  119 1    
   103   52   53 2    
   104   52   54 am   BACKBONE|DICT|INTERRES
   105   54   55 1    
   106   54  120 1    
   107   55   56 1    
   108   55   57 1    
   109   55  121 1    
   110   56  122 1    
   111   56  123 1    
   112   56  124 1    
   113   57   58 2    
   114   57   59 am   BACKBONE|DICT|INTERRES
   115   59   60 1    
   116   59  125 1    
   117   60   61 1    
   118   60   62 1    
   119   60  126 1    
   120   61  127 1    
   121   61  128 1    
   122   61  129 1    
   123   62   63 2    
   124   62   64 am   BACKBONE|DICT|INTERRES
   125   64   65 1    
   126   64  130 1    
   127   65   66 1    
   128   65   69 1    
   129   65  131 1    
   130   66   67 am   BACKBONE|DICT|INTERRES
   131   66   68 2    
   132   67  132 1    
   133   67  133 1    
   134   69   70 1    
   135   69  134 1    
   136   69  135 1    
   137   70   71 1    
   138   71  136 1    
   139   71  137 1    
@<TRIPOS>SUBSTRUCTURE
     1 UNK         1 GROUP             0       ****    0 ROOT    
