@<TRIPOS>MOLECULE
3R137
137   139    1
SMALL
USER_CHARGES


@<TRIPOS>ATOM
      1 CA         27.9729   -2.1889    3.4687 C.3       0 UNK        -0.2020 
      2 C          28.3170   -1.4769    2.1691 C.2       0 UNK         0.4855 
      3 O          28.7963   -0.3433    2.2006 O.2       0 UNK        -0.5197 
      4 N          28.0756   -2.1327    1.0260 N.am      1 UNK        -0.4892 
      5 CA         28.3585   -1.6098   -0.3199 C.3       1 UNK         0.0835 
      6 C6         28.3646   -2.7363   -1.3849 C.3       12 UNK        -0.0855 
      7 S7         29.6244   -4.0041   -1.0240 S.3       12 UNK        -0.2931 
      8 C8         29.4168   -5.1412   -2.4378 C.3       12 UNK         0.0378 
      9 C9         29.9146   -4.6038   -3.7807 C.ar      12 UNK        -0.0802 
     10 C10        31.0218   -3.7486   -3.8719 C.ar      12 UNK        -0.0944 
     11 C11        31.4894   -3.3194   -5.1169 C.ar      12 UNK        -0.0787 
     12 C12        30.8337   -3.7398   -6.2755 C.ar      12 UNK        -0.0862 
     13 C13        29.7292   -4.5935   -6.2109 C.ar      12 UNK        -0.0733 
     14 C14        29.2864   -5.0323   -4.9566 C.ar      12 UNK        -0.0832 
     15 C15        29.0953   -5.0585   -7.5243 C.3       12 UNK         0.0240 
     16 S16        27.3272   -5.5252   -7.4690 S.3       12 UNK        -0.2522 
     17 C17        26.4945   -4.0996   -6.6937 C.3       12 UNK        -0.0967 
     18 CA         26.3065   -2.8635   -7.6162 C.3       5 UNK         0.0660 
     19 N          25.0696   -2.1560   -7.2722 N.am      5 UNK        -0.4015 
     20 C          24.6542   -0.9702   -7.7391 C.2       4 UNK         0.4946 
     21 O          25.1824   -0.3768   -8.6787 O.2       4 UNK        -0.5353 
     22 CA         23.4896   -0.2964   -6.9866 C.3       4 UNK         0.0277 
     23 CB         22.1913   -0.4088   -7.8012 C.3       4 UNK        -0.1981 
     24 N          23.2562   -0.8034   -5.6245 N.am      4 UNK        -0.4209 
     25 C          24.1482   -0.8105   -4.6213 C.2       3 UNK         0.4942 
     26 O          25.3139   -0.4218   -4.7330 O.2       3 UNK        -0.5208 
     27 CA         23.6780   -1.4645   -3.3117 C.3       3 UNK         0.0250 
     28 CB         23.8600   -2.9904   -3.3915 C.3       3 UNK        -0.1990 
     29 N          24.4056   -0.9704   -2.1426 N.am      3 UNK        -0.4232 
     30 C          24.3153    0.2665   -1.6353 C.2       2 UNK         0.4993 
     31 O          23.5691    1.1372   -2.0861 O.2       2 UNK        -0.5286 
     32 CA         25.1695    0.5817   -0.3924 C.3       2 UNK         0.0209 
     33 CB         24.2780    0.7176    0.8540 C.3       2 UNK        -0.1931 
     34 N          26.2037   -0.4240   -0.1227 N.am      2 UNK        -0.4546 
     35 C          27.3969   -0.4735   -0.7331 C.2       1 UNK         0.5154 
     36 O          27.7521    0.3367   -1.5878 O.2       1 UNK        -0.5181 
     37 C          27.5382   -1.9369   -7.5334 C.2       5 UNK         0.5014 
     38 O          28.3200   -1.8697   -8.4829 O.2       5 UNK        -0.5248 
     39 N          27.6631   -1.2088   -6.4132 N.am      6 UNK        -0.4434 
     40 CA         28.7775   -0.2996   -6.1608 C.3       6 UNK         0.0363 
     41 CB         28.8207    0.0770   -4.6752 C.3       6 UNK        -0.1936 
     42 C          28.7331    0.9560   -7.0379 C.2       6 UNK         0.5081 
     43 O          29.7882    1.4338   -7.4505 O.2       6 UNK        -0.5248 
     44 N          27.5230    1.4474   -7.3388 N.am      7 UNK        -0.4718 
     45 CA         27.2964    2.5662   -8.2561 C.3       7 UNK         0.0273 
     46 CB         25.8446    3.0569   -8.1357 C.3       7 UNK        -0.1935 
     47 C          27.6383    2.1990   -9.7094 C.2       7 UNK         0.5018 
     48 O          28.2471    3.0102  -10.4068 O.2       7 UNK        -0.5186 
     49 N          27.2729    0.9770  -10.1242 N.am      8 UNK        -0.4240 
     50 CA         27.6110    0.4016  -11.4272 C.3       8 UNK         0.0235 
     51 CB         26.8056   -0.8894  -11.6472 C.3       8 UNK        -0.2000 
     52 C          29.1189    0.1431  -11.5855 C.2       8 UNK         0.4941 
     53 O          29.6783    0.4691  -12.6332 O.2       8 UNK        -0.5273 
     54 N          29.7509   -0.4209  -10.5457 N.am      9 UNK        -0.4262 
     55 CA         31.1945   -0.6732  -10.4938 C.3       9 UNK         0.0264 
     56 CB         31.4952   -1.6431   -9.3418 C.3       9 UNK        -0.1955 
     57 C          32.0408    0.6036  -10.3423 C.2       9 UNK         0.5031 
     58 O          33.1927    0.6103  -10.7785 O.2       9 UNK        -0.5390 
     59 N          31.4660    1.6375   -9.7106 N.am      10 UNK        -0.4204 
     60 CA         32.0780    2.9136   -9.3246 C.3       10 UNK         0.0237 
     61 CB         32.5176    3.7247  -10.5626 C.3       10 UNK        -0.1985 
     62 C          33.1935    2.7445   -8.2728 C.2       10 UNK         0.4970 
     63 O          34.1693    3.4980   -8.2888 O.2       10 UNK        -0.4914 
     64 N          33.0321    1.7593   -7.3795 N.am      11 UNK        -0.4285 
     65 CA         33.9406    1.4893   -6.2568 C.3       11 UNK         0.1007 
     66 C          33.7011    2.4334   -5.0445 C.2       11 UNK         0.5703 
     67 N          34.6393    2.4849   -4.1080 N.am      11 UNK        -0.7361 
     68 O          32.6809    3.1121   -4.9347 O.2       11 UNK        -0.4986 
     69 C69        33.9472   -0.0146   -5.8680 C.3       12 UNK        -0.0947 
     70 S70        32.3205   -0.6872   -5.3940 S.3       12 UNK        -0.2240 
     71 C71        32.7339   -2.4487   -5.2251 C.3       12 UNK         0.0194 
     72 H72        27.2376   -1.6122    4.0292 H         1 UNK         0.0906 
     73 H73        27.5625   -3.1833    3.2937 H         1 UNK         0.0906 
     74 H74        28.8649   -2.2947    4.0855 H         1 UNK         0.0906 
     75 H75        27.7169   -3.0770    1.0598 H         1 UNK         0.3140 
     76 H76        29.3576   -1.1677   -0.2984 H         1 UNK         0.1085 
     77 H77        27.3867   -3.2173   -1.4487 H         1 UNK         0.0836 
     78 H78        28.5732   -2.3296   -2.3755 H         1 UNK         0.0836 
     79 H79        28.3632   -5.4175   -2.5059 H         1 UNK         0.0731 
     80 H80        29.9612   -6.0607   -2.2194 H         1 UNK         0.0731 
     81 H81        31.5392   -3.4333   -2.9767 H         1 UNK         0.1312 
     82 H82        31.2044   -3.4179   -7.2371 H         1 UNK         0.1406 
     83 H83        28.4555   -5.7213   -4.8933 H         1 UNK         0.1631 
     84 H84        29.6564   -5.9248   -7.8766 H         1 UNK         0.0717 
     85 H85        29.2212   -4.2955   -8.2924 H         1 UNK         0.0717 
     86 H86        25.5175   -4.4862   -6.3985 H         1 UNK         0.0934 
     87 H87        26.9777   -3.8400   -5.7506 H         1 UNK         0.0934 
     88 H88        26.2002   -3.1932   -8.6516 H         1 UNK         0.0739 
     89 H89        24.5365   -2.5509   -6.5134 H         1 UNK         0.3093 
     90 H90        23.7446    0.7613   -6.8952 H         1 UNK         0.0818 
     91 H91        21.3820    0.1583   -7.3409 H         1 UNK         0.0819 
     92 H92        22.3271   -0.0125   -8.8088 H         1 UNK         0.0819 
     93 H93        21.8641   -1.4445   -7.9005 H         1 UNK         0.0819 
     94 H94        22.3302   -1.1640   -5.4409 H         1 UNK         0.3041 
     95 H95        22.6188   -1.2394   -3.1692 H         1 UNK         0.0784 
     96 H96        23.2926   -3.4144   -4.2210 H         1 UNK         0.0793 
     97 H97        24.9058   -3.2663   -3.5359 H         1 UNK         0.0793 
     98 H98        23.5078   -3.4796   -2.4829 H         1 UNK         0.0793 
     99 H99        25.0611   -1.6054   -1.7149 H         1 UNK         0.3024 
    100 H100       25.6530    1.5448   -0.5735 H         1 UNK         0.1171 
    101 H101       24.8614    1.0034    1.7296 H         1 UNK         0.0786 
    102 H102       23.5177    1.4866    0.7094 H         1 UNK         0.0786 
    103 H103       23.7593   -0.2139    1.0841 H         1 UNK         0.0786 
    104 H104       26.0028   -1.1139    0.5872 H         1 UNK         0.2977 
    105 H105       26.9253   -1.2262   -5.7159 H         1 UNK         0.3127 
    106 H106       29.6946   -0.8355   -6.4055 H         1 UNK         0.0770 
    107 H107       27.8928    0.5473   -4.3476 H         1 UNK         0.0814 
    108 H108       29.6321    0.7773   -4.4720 H         1 UNK         0.0814 
    109 H109       28.9943   -0.8007   -4.0550 H         1 UNK         0.0814 
    110 H110       26.7083    0.9744   -6.9746 H         1 UNK         0.2983 
    111 H111       27.9571    3.3834   -7.9575 H         1 UNK         0.0947 
    112 H112       25.6784    3.9304   -8.7674 H         1 UNK         0.0806 
    113 H113       25.6065    3.3479   -7.1125 H         1 UNK         0.0806 
    114 H114       25.1289    2.2948   -8.4442 H         1 UNK         0.0806 
    115 H115       26.7106    0.4014   -9.5010 H         1 UNK         0.3000 
    116 H116       27.3158    1.1205  -12.1945 H         1 UNK         0.0850 
    117 H117       27.0247   -1.3255  -12.6226 H         1 UNK         0.0810 
    118 H118       25.7331   -0.6970  -11.6100 H         1 UNK         0.0810 
    119 H119       27.0334   -1.6431  -10.8926 H         1 UNK         0.0810 
    120 H120       29.2005   -0.7392   -9.7503 H         1 UNK         0.3040 
    121 H121       31.4889   -1.1537  -11.4293 H         1 UNK         0.0766 
    122 H122       31.1926   -1.2276   -8.3798 H         1 UNK         0.0812 
    123 H123       32.5614   -1.8659   -9.2814 H         1 UNK         0.0812 
    124 H124       30.9715   -2.5889   -9.4803 H         1 UNK         0.0812 
    125 H125       30.5473    1.4822   -9.3072 H         1 UNK         0.3205 
    126 H126       31.2880    3.4802   -8.8293 H         1 UNK         0.0754 
    127 H127       33.3599    3.2599  -11.0757 H         1 UNK         0.0769 
    128 H128       31.7015    3.8252  -11.2784 H         1 UNK         0.0769 
    129 H129       32.8259    4.7320  -10.2802 H         1 UNK         0.0769 
    130 H130       32.1604    1.2468   -7.3762 H         1 UNK         0.2981 
    131 H131       34.9503    1.7154   -6.6053 H         1 UNK         0.0541 
    132 H132       35.4813    1.9355   -4.1804 H         1 UNK         0.3459 
    133 H133       34.5019    3.0876   -3.3118 H         1 UNK         0.3459 
    134 H134       34.6509   -0.2013   -5.0551 H         1 UNK         0.0612 
    135 H135       34.3152   -0.5955   -6.7152 H         1 UNK         0.0612 
    136 H136       33.3227   -2.7664   -6.0870 H         1 UNK         0.0624 
    137 H137       33.3718   -2.5834   -4.3503 H         1 UNK         0.0624 
@<TRIPOS>BOND
     1    1    2 1    
     2    1   72 1    
     3    1   73 1    
     4    1   74 1    
     5    2    3 2    
     6    2    4 am   BACKBONE|DICT|INTERRES
     7    4    5 1    
     8    4   75 1    
     9    5    6 1    
    10    5   35 1    
    11    5   76 1    
    12    6    7 1    
    13    6   77 1    
    14    6   78 1    
    15    7    8 1    
    16    8    9 1    
    17    8   79 1    
    18    8   80 1    
    19    9   10 ar   
    20    9   14 ar   
    21   10   11 ar   
    22   10   81 1    
    23   11   12 ar   
    24   11   71 1    
    25   12   13 ar   
    26   12   82 1    
    27   13   14 ar   
    28   13   15 1    
    29   14   83 1    
    30   15   16 1    
    31   15   84 1    
    32   15   85 1    
    33   16   17 1    
    34   17   18 1    
    35   17   86 1    
    36   17   87 1    
    37   18   19 1    
    38   18   37 1    
    39   18   88 1    
    40   19   20 am   BACKBONE|DICT|INTERRES
    41   19   89 1    
    42   20   21 2    
    43   20   22 1    
    44   22   23 1    
    45   22   24 1    
    46   22   90 1    
    47   23   91 1    
    48   23   92 1    
    49   23   93 1    
    50   24   25 am   BACKBONE|DICT|INTERRES
    51   24   94 1    
    52   25   26 2    
    53   25   27 1    
    54   27   28 1    
    55   27   29 1    
    56   27   95 1    
    57   28   96 1    
    58   28   97 1    
    59   28   98 1    
    60   29   30 am   BACKBONE|DICT|INTERRES
    61   29   99 1    
    62   30   31 2    
    63   30   32 1    
    64   32   33 1    
    65   32   34 1    
    66   32  100 1    
    67   33  101 1    
    68   33  102 1    
    69   33  103 1    
    70   34   35 am   BACKBONE|DICT|INTERRES
    71   34  104 1    
    72   35   36 2    
    73   37   38 2    
    74   37   39 am   BACKBONE|DICT|INTERRES
    75   39   40 1    
    76   39  105 1    
    77   40   41 1    
    78   40   42 1    
    79   40  106 1    
    80   41  107 1    
    81   41  108 1    
    82   41  109 1    
    83   42   43 2    
    84   42   44 am   BACKBONE|DICT|INTERRES
    85   44   45 1    
    86   44  110 1    
    87   45   46 1    
    88   45   47 1    
    89   45  111 1    
    90   46  112 1    
    91   46  113 1    
    92   46  114 1    
    93   47   48 2    
    94   47   49 am   BACKBONE|DICT|INTERRES
    95   49   50 1    
    96   49  115 1    
    97   50   51 1    
    98   50   52 1    
    99   50  116 1    
   100   51  117 1    
   101   51  118 1    
   102   51  119 1    
   103   52   53 2    
   104   52   54 am   BACKBONE|DICT|INTERRES
   105   54   55 1    
   106   54  120 1    
   107   55   56 1    
   108   55   57 1    
   109   55  121 1    
   110   56  122 1    
   111   56  123 1    
   112   56  124 1    
   113   57   58 2    
   114   57   59 am   BACKBONE|DICT|INTERRES
   115   59   60 1    
   116   59  125 1    
   117   60   61 1    
   118   60   62 1    
   119   60  126 1    
   120   61  127 1    
   121   61  128 1    
   122   61  129 1    
   123   62   63 2    
   124   62   64 am   BACKBONE|DICT|INTERRES
   125   64   65 1    
   126   64  130 1    
   127   65   66 1    
   128   65   69 1    
   129   65  131 1    
   130   66   67 am   BACKBONE|DICT|INTERRES
   131   66   68 2    
   132   67  132 1    
   133   67  133 1    
   134   69   70 1    
   135   69  134 1    
   136   69  135 1    
   137   70   71 1    
   138   71  136 1    
   139   71  137 1    
@<TRIPOS>SUBSTRUCTURE
     1 UNK         1 GROUP             0       ****    0 ROOT    
