@<TRIPOS>MOLECULE
3R137
137   139    1
SMALL
USER_CHARGES


@<TRIPOS>ATOM
      1 CA         27.4699   -5.4386   -7.2308 C.3       0 UNK        -0.2020 
      2 C          27.1203   -5.8197   -5.8008 C.2       0 UNK         0.4855 
      3 O          26.4285   -6.8138   -5.5797 O.2       0 UNK        -0.5197 
      4 N          27.5850   -5.0315   -4.8240 N.am      1 UNK        -0.4892 
      5 CA         27.4576   -5.2616   -3.3758 C.3       1 UNK         0.0835 
      6 C6         28.5534   -4.4897   -2.5949 C.3       12 UNK        -0.0855 
      7 S7         30.2385   -4.9476   -3.1234 S.3       12 UNK        -0.2931 
      8 C8         31.2364   -4.2205   -1.7877 C.3       12 UNK         0.0378 
      9 C9         31.2389   -2.6991   -1.8394 C.ar      12 UNK        -0.0802 
     10 C10        32.0576   -2.0315   -2.7562 C.ar      12 UNK        -0.0944 
     11 C11        32.0957   -0.6348   -2.7821 C.ar      12 UNK        -0.0787 
     12 C12        31.3211    0.0923   -1.8770 C.ar      12 UNK        -0.0862 
     13 C13        30.4721   -0.5599   -0.9799 C.ar      12 UNK        -0.0733 
     14 C14        30.4382   -1.9583   -0.9624 C.ar      12 UNK        -0.0832 
     15 C15        29.6033    0.2455   -0.0241 C.3       12 UNK         0.0240 
     16 S16        28.0461    0.7856   -0.8040 S.3       12 UNK        -0.2522 
     17 C17        28.5812    2.2254   -1.7954 C.3       12 UNK        -0.0967 
     18 CA         28.3555    2.0265   -3.3201 C.3       5 UNK         0.0660 
     19 N          26.9209    1.8817   -3.6013 N.am      5 UNK        -0.4015 
     20 C          26.3271    1.4615   -4.7255 C.2       4 UNK         0.4946 
     21 O          26.9147    1.2050   -5.7812 O.2       4 UNK        -0.5353 
     22 CA         24.7941    1.3432   -4.6575 C.3       4 UNK         0.0277 
     23 CB         24.1314    2.5841   -5.2785 C.3       4 UNK        -0.1981 
     24 N          24.2858    0.1328   -5.3108 N.am      4 UNK        -0.4209 
     25 C          24.5885   -1.1185   -4.9370 C.2       3 UNK         0.4942 
     26 O          25.3471   -1.3914   -4.0039 O.2       3 UNK        -0.5208 
     27 CA         23.9404   -2.2503   -5.7555 C.3       3 UNK         0.0250 
     28 CB         24.6574   -2.4255   -7.1026 C.3       3 UNK        -0.1990 
     29 N          24.0045   -3.5225   -5.0395 N.am      3 UNK        -0.4232 
     30 C          23.2230   -3.8851   -4.0136 C.2       2 UNK         0.4993 
     31 O          22.2448   -3.2411   -3.6317 O.2       2 UNK        -0.5286 
     32 CA         23.6017   -5.1931   -3.2923 C.3       2 UNK         0.0209 
     33 CB         22.7293   -6.3574   -3.7891 C.3       2 UNK        -0.1931 
     34 N          25.0155   -5.5375   -3.4793 N.am      2 UNK        -0.4546 
     35 C          26.0367   -4.9349   -2.8561 C.2       1 UNK         0.5154 
     36 O          25.8800   -4.1375   -1.9298 O.2       1 UNK        -0.5181 
     37 C          29.0243    3.1486   -4.1528 C.2       5 UNK         0.5014 
     38 O          29.5898    4.0873   -3.5872 O.2       5 UNK        -0.5248 
     39 N          28.9397    3.0391   -5.4800 N.am      6 UNK        -0.4434 
     40 CA         29.5020    3.9435   -6.4743 C.3       6 UNK         0.0363 
     41 CB         28.6824    5.2538   -6.5370 C.3       6 UNK        -0.1936 
     42 C          29.5863    3.1858   -7.8095 C.2       6 UNK         0.5081 
     43 O          30.0094    2.0280   -7.8285 O.2       6 UNK        -0.5248 
     44 N          29.1732    3.8312   -8.9079 N.am      7 UNK        -0.4718 
     45 CA         29.2049    3.2895  -10.2700 C.3       7 UNK         0.0273 
     46 CB         28.8530    4.4073  -11.2646 C.3       7 UNK        -0.1935 
     47 C          28.2960    2.0672  -10.4941 C.2       7 UNK         0.5018 
     48 O          28.5825    1.2764  -11.3919 O.2       7 UNK        -0.5186 
     49 N          27.2392    1.9179   -9.6810 N.am      8 UNK        -0.4240 
     50 CA         26.3142    0.7815   -9.7303 C.3       8 UNK         0.0235 
     51 CB         25.0469    1.1039   -8.9251 C.3       8 UNK        -0.2000 
     52 C          26.9759   -0.5228   -9.2515 C.2       8 UNK         0.4941 
     53 O          26.8840   -1.5351   -9.9456 O.2       8 UNK        -0.5273 
     54 N          27.6731   -0.4654   -8.1058 N.am      9 UNK        -0.4262 
     55 CA         28.5400   -1.5403   -7.6057 C.3       9 UNK         0.0264 
     56 CB         28.7915   -1.3385   -6.1014 C.3       9 UNK        -0.1955 
     57 C          29.8739   -1.6585   -8.3718 C.2       9 UNK         0.5031 
     58 O          30.5760   -2.6544   -8.1932 O.2       9 UNK        -0.5390 
     59 N          30.1861   -0.6549   -9.2047 N.am      10 UNK        -0.4204 
     60 CA         31.3826   -0.4945  -10.0356 C.3       10 UNK         0.0237 
     61 CB         31.5053   -1.6296  -11.0751 C.3       10 UNK        -0.1985 
     62 C          32.6524   -0.2888   -9.1925 C.2       10 UNK         0.4970 
     63 O          33.6890   -0.8930   -9.4762 O.2       10 UNK        -0.4914 
     64 N          32.5425    0.5661   -8.1687 N.am      11 UNK        -0.4285 
     65 CA         33.6457    0.9636   -7.2842 C.3       11 UNK         0.1007 
     66 C          34.7514    1.7636   -8.0261 C.2       11 UNK         0.5703 
     67 N          36.0051    1.6104   -7.6213 N.am      11 UNK        -0.7361 
     68 O          34.4800    2.5494   -8.9328 O.2       11 UNK        -0.4986 
     69 C69        33.1306    1.7599   -6.0601 C.3       12 UNK        -0.0947 
     70 S70        31.9052    0.8264   -5.0904 S.3       12 UNK        -0.2240 
     71 C71        32.9528    0.1049   -3.7940 C.3       12 UNK         0.0194 
     72 H72        27.6736   -6.3333   -7.8186 H         1 UNK         0.0906 
     73 H73        26.6409   -4.9076   -7.6974 H         1 UNK         0.0906 
     74 H74        28.3573   -4.8073   -7.2721 H         1 UNK         0.0906 
     75 H75        28.1490   -4.2303   -5.0685 H         1 UNK         0.3140 
     76 H76        27.6115   -6.3270   -3.1890 H         1 UNK         0.1085 
     77 H77        28.4665   -4.6872   -1.5245 H         1 UNK         0.0836 
     78 H78        28.4294   -3.4119   -2.7218 H         1 UNK         0.0836 
     79 H79        32.2606   -4.5856   -1.8773 H         1 UNK         0.0731 
     80 H80        30.8728   -4.5767   -0.8225 H         1 UNK         0.0731 
     81 H81        32.6606   -2.6012   -3.4502 H         1 UNK         0.1312 
     82 H82        31.3707    1.1708   -1.8952 H         1 UNK         0.1406 
     83 H83        29.7915   -2.4702   -0.2625 H         1 UNK         0.1631 
     84 H84        30.1520    1.1099    0.3530 H         1 UNK         0.0717 
     85 H85        29.3590   -0.3579    0.8515 H         1 UNK         0.0717 
     86 H86        28.0305    3.1003   -1.4443 H         1 UNK         0.0934 
     87 H87        29.6254    2.4446   -1.5755 H         1 UNK         0.0934 
     88 H88        28.8443    1.0949   -3.6147 H         1 UNK         0.0739 
     89 H89        26.3261    2.0743   -2.8092 H         1 UNK         0.3093 
     90 H90        24.4951    1.2864   -3.6086 H         1 UNK         0.0818 
     91 H91        24.4508    3.4929   -4.7665 H         1 UNK         0.0819 
     92 H92        24.3881    2.7023   -6.3311 H         1 UNK         0.0819 
     93 H93        23.0451    2.5372   -5.2004 H         1 UNK         0.0819 
     94 H94        23.6717    0.2706   -6.0994 H         1 UNK         0.3041 
     95 H95        22.8927   -2.0002   -5.9358 H         1 UNK         0.0784 
     96 H96        24.5635   -1.5302   -7.7137 H         1 UNK         0.0793 
     97 H97        25.7218   -2.6184   -6.9686 H         1 UNK         0.0793 
     98 H98        24.2350   -3.2500   -7.6773 H         1 UNK         0.0793 
     99 H99        24.8050   -4.1032   -5.2340 H         1 UNK         0.3024 
    100 H100       23.4121   -5.0466   -2.2263 H         1 UNK         0.1171 
    101 H101       22.8837   -6.5537   -4.8510 H         1 UNK         0.0786 
    102 H102       22.9458   -7.2757   -3.2429 H         1 UNK         0.0786 
    103 H103       21.6698   -6.1392   -3.6475 H         1 UNK         0.0786 
    104 H104       25.2481   -6.1834   -4.2307 H         1 UNK         0.2977 
    105 H105       28.4304    2.2380   -5.8506 H         1 UNK         0.3127 
    106 H106       30.5267    4.1816   -6.1829 H         1 UNK         0.0770 
    107 H107       29.1210    5.9676   -7.2352 H         1 UNK         0.0814 
    108 H108       28.6548    5.7504   -5.5672 H         1 UNK         0.0814 
    109 H109       27.6502    5.0723   -6.8398 H         1 UNK         0.0814 
    110 H110       28.8330    4.7768   -8.8060 H         1 UNK         0.2983 
    111 H111       30.2289    2.9658  -10.4701 H         1 UNK         0.0947 
    112 H112       28.8964    4.0438  -12.2925 H         1 UNK         0.0806 
    113 H113       29.5516    5.2409  -11.1898 H         1 UNK         0.0806 
    114 H114       27.8468    4.7944  -11.0986 H         1 UNK         0.0806 
    115 H115       27.0816    2.6135   -8.9667 H         1 UNK         0.3000 
    116 H116       26.0191    0.6405  -10.7727 H         1 UNK         0.0850 
    117 H117       24.6084    2.0533   -9.2331 H         1 UNK         0.0810 
    118 H118       25.2530    1.1585   -7.8578 H         1 UNK         0.0810 
    119 H119       24.2864    0.3380   -9.0774 H         1 UNK         0.0810 
    120 H120       27.6225    0.3722   -7.5347 H         1 UNK         0.3040 
    121 H121       28.0165   -2.4877   -7.7376 H         1 UNK         0.0766 
    122 H122       29.4564   -2.1054   -5.7014 H         1 UNK         0.0812 
    123 H123       27.8623   -1.3863   -5.5330 H         1 UNK         0.0812 
    124 H124       29.2551   -0.3722   -5.9017 H         1 UNK         0.0812 
    125 H125       29.5541    0.1342   -9.2068 H         1 UNK         0.3205 
    126 H126       31.2397    0.4346  -10.5891 H         1 UNK         0.0754 
    127 H127       30.5910   -1.7287  -11.6604 H         1 UNK         0.0769 
    128 H128       31.7107   -2.5922  -10.6060 H         1 UNK         0.0769 
    129 H129       32.3178   -1.4305  -11.7749 H         1 UNK         0.0769 
    130 H130       31.6516    1.0252   -7.9992 H         1 UNK         0.2981 
    131 H131       34.0996    0.0416   -6.9152 H         1 UNK         0.0541 
    132 H132       36.2389    0.9781   -6.8718 H         1 UNK         0.3459 
    133 H133       36.7346    2.1329   -8.0807 H         1 UNK         0.3459 
    134 H134       32.6605    2.6903   -6.3836 H         1 UNK         0.0612 
    135 H135       33.9562    2.0477   -5.4069 H         1 UNK         0.0612 
    136 H136       33.6847   -0.5637   -4.2497 H         1 UNK         0.0624 
    137 H137       33.5132    0.8942   -3.2909 H         1 UNK         0.0624 
@<TRIPOS>BOND
     1    1    2 1    
     2    1   72 1    
     3    1   73 1    
     4    1   74 1    
     5    2    3 2    
     6    2    4 am   BACKBONE|DICT|INTERRES
     7    4    5 1    
     8    4   75 1    
     9    5    6 1    
    10    5   35 1    
    11    5   76 1    
    12    6    7 1    
    13    6   77 1    
    14    6   78 1    
    15    7    8 1    
    16    8    9 1    
    17    8   79 1    
    18    8   80 1    
    19    9   10 ar   
    20    9   14 ar   
    21   10   11 ar   
    22   10   81 1    
    23   11   12 ar   
    24   11   71 1    
    25   12   13 ar   
    26   12   82 1    
    27   13   14 ar   
    28   13   15 1    
    29   14   83 1    
    30   15   16 1    
    31   15   84 1    
    32   15   85 1    
    33   16   17 1    
    34   17   18 1    
    35   17   86 1    
    36   17   87 1    
    37   18   19 1    
    38   18   37 1    
    39   18   88 1    
    40   19   20 am   BACKBONE|DICT|INTERRES
    41   19   89 1    
    42   20   21 2    
    43   20   22 1    
    44   22   23 1    
    45   22   24 1    
    46   22   90 1    
    47   23   91 1    
    48   23   92 1    
    49   23   93 1    
    50   24   25 am   BACKBONE|DICT|INTERRES
    51   24   94 1    
    52   25   26 2    
    53   25   27 1    
    54   27   28 1    
    55   27   29 1    
    56   27   95 1    
    57   28   96 1    
    58   28   97 1    
    59   28   98 1    
    60   29   30 am   BACKBONE|DICT|INTERRES
    61   29   99 1    
    62   30   31 2    
    63   30   32 1    
    64   32   33 1    
    65   32   34 1    
    66   32  100 1    
    67   33  101 1    
    68   33  102 1    
    69   33  103 1    
    70   34   35 am   BACKBONE|DICT|INTERRES
    71   34  104 1    
    72   35   36 2    
    73   37   38 2    
    74   37   39 am   BACKBONE|DICT|INTERRES
    75   39   40 1    
    76   39  105 1    
    77   40   41 1    
    78   40   42 1    
    79   40  106 1    
    80   41  107 1    
    81   41  108 1    
    82   41  109 1    
    83   42   43 2    
    84   42   44 am   BACKBONE|DICT|INTERRES
    85   44   45 1    
    86   44  110 1    
    87   45   46 1    
    88   45   47 1    
    89   45  111 1    
    90   46  112 1    
    91   46  113 1    
    92   46  114 1    
    93   47   48 2    
    94   47   49 am   BACKBONE|DICT|INTERRES
    95   49   50 1    
    96   49  115 1    
    97   50   51 1    
    98   50   52 1    
    99   50  116 1    
   100   51  117 1    
   101   51  118 1    
   102   51  119 1    
   103   52   53 2    
   104   52   54 am   BACKBONE|DICT|INTERRES
   105   54   55 1    
   106   54  120 1    
   107   55   56 1    
   108   55   57 1    
   109   55  121 1    
   110   56  122 1    
   111   56  123 1    
   112   56  124 1    
   113   57   58 2    
   114   57   59 am   BACKBONE|DICT|INTERRES
   115   59   60 1    
   116   59  125 1    
   117   60   61 1    
   118   60   62 1    
   119   60  126 1    
   120   61  127 1    
   121   61  128 1    
   122   61  129 1    
   123   62   63 2    
   124   62   64 am   BACKBONE|DICT|INTERRES
   125   64   65 1    
   126   64  130 1    
   127   65   66 1    
   128   65   69 1    
   129   65  131 1    
   130   66   67 am   BACKBONE|DICT|INTERRES
   131   66   68 2    
   132   67  132 1    
   133   67  133 1    
   134   69   70 1    
   135   69  134 1    
   136   69  135 1    
   137   70   71 1    
   138   71  136 1    
   139   71  137 1    
@<TRIPOS>SUBSTRUCTURE
     1 UNK         1 GROUP             0       ****    0 ROOT    
