@<TRIPOS>MOLECULE
3R137
137   139    1
SMALL
USER_CHARGES


@<TRIPOS>ATOM
      1 CA         25.0811   -5.6016   -3.1446 C.3       0 UNK        -0.2020 
      2 C          25.5555   -4.2491   -2.6367 C.2       0 UNK         0.4855 
      3 O          25.7910   -3.3542   -3.4465 O.2       0 UNK        -0.5197 
      4 N          25.6957   -4.1071   -1.3106 N.am      1 UNK        -0.4892 
      5 CA         26.1456   -2.8994   -0.5972 C.3       1 UNK         0.0835 
      6 C6         27.5838   -2.4485   -0.9737 C.3       12 UNK        -0.0855 
      7 S7         28.8274   -3.6860   -0.4854 S.3       12 UNK        -0.2931 
      8 C8         30.3775   -2.8087   -0.8927 C.3       12 UNK         0.0378 
      9 C9         30.7753   -2.8442   -2.3694 C.ar      12 UNK        -0.0802 
     10 C10        31.5699   -1.8142   -2.8852 C.ar      12 UNK        -0.0944 
     11 C11        32.0275   -1.8534   -4.2068 C.ar      12 UNK        -0.0787 
     12 C12        31.6736   -2.9329   -5.0227 C.ar      12 UNK        -0.0862 
     13 C13        30.8682   -3.9628   -4.5286 C.ar      12 UNK        -0.0733 
     14 C14        30.4298   -3.9157   -3.2023 C.ar      12 UNK        -0.0832 
     15 C15        30.5023   -5.1501   -5.4101 C.3       12 UNK         0.0240 
     16 S16        29.3950   -4.7034   -6.7857 S.3       12 UNK        -0.2522 
     17 C17        27.9074   -4.0943   -5.9196 C.3       12 UNK        -0.0967 
     18 CA         27.3936   -2.7632   -6.5215 C.3       5 UNK         0.0660 
     19 N          25.9799   -2.5405   -6.2219 N.am      5 UNK        -0.4015 
     20 C          25.1811   -1.7086   -6.9058 C.2       4 UNK         0.4946 
     21 O          25.5568   -1.0321   -7.8636 O.2       4 UNK        -0.5353 
     22 CA         23.7098   -1.6074   -6.4570 C.3       4 UNK         0.0277 
     23 CB         23.1884   -2.8857   -5.7652 C.3       4 UNK        -0.1981 
     24 N          23.4087   -0.4394   -5.6190 N.am      4 UNK        -0.4209 
     25 C          24.1008    0.0096   -4.5613 C.2       3 UNK         0.4942 
     26 O          25.2203   -0.3847   -4.2420 O.2       3 UNK        -0.5208 
     27 CA         23.4298    1.0571   -3.6584 C.3       3 UNK         0.0250 
     28 CB         22.1273    1.6736   -4.2206 C.3       3 UNK        -0.1990 
     29 N          23.2317    0.4692   -2.3288 N.am      3 UNK        -0.4232 
     30 C          22.4677   -0.5909   -2.0229 C.2       2 UNK         0.4993 
     31 O          21.6721   -1.1258   -2.7980 O.2       2 UNK        -0.5286 
     32 CA         22.6793   -1.1906   -0.6236 C.3       2 UNK         0.0209 
     33 CB         21.4323   -1.9374   -0.1137 C.3       2 UNK        -0.1931 
     34 N          23.8155   -2.1150   -0.6317 N.am      2 UNK        -0.4546 
     35 C          25.1071   -1.7537   -0.6411 C.2       1 UNK         0.5154 
     36 O          25.4735   -0.5762   -0.6278 O.2       1 UNK        -0.5181 
     37 C          28.2571   -1.5548   -6.1114 C.2       5 UNK         0.5014 
     38 O          29.1191   -1.1506   -6.8888 O.2       5 UNK        -0.5248 
     39 N          27.9758   -0.9522   -4.9460 N.am      6 UNK        -0.4434 
     40 CA         28.6624    0.2532   -4.4655 C.3       6 UNK         0.0363 
     41 CB         28.3753    0.4659   -2.9710 C.3       6 UNK        -0.1936 
     42 C          28.3212    1.5168   -5.2760 C.2       6 UNK         0.5081 
     43 O          29.0883    2.4792   -5.2466 O.2       6 UNK        -0.5248 
     44 N          27.1841    1.4983   -5.9830 N.am      7 UNK        -0.4718 
     45 CA         26.7523    2.5600   -6.8925 C.3       7 UNK         0.0273 
     46 CB         25.2168    2.5471   -6.9796 C.3       7 UNK        -0.1935 
     47 C          27.3782    2.4517   -8.2967 C.2       7 UNK         0.5018 
     48 O          27.2267    3.3904   -9.0809 O.2       7 UNK        -0.5186 
     49 N          28.0377    1.3279   -8.6153 N.am      8 UNK        -0.4240 
     50 CA         28.6585    1.0844   -9.9183 C.3       8 UNK         0.0235 
     51 CB         28.8829   -0.4264  -10.0994 C.3       8 UNK        -0.2000 
     52 C          29.9869    1.8421  -10.0701 C.2       8 UNK         0.4941 
     53 O          30.6877    2.0780   -9.0834 O.2       8 UNK        -0.5273 
     54 N          30.3455    2.1476  -11.3252 N.am      9 UNK        -0.4262 
     55 CA         31.6075    2.7981  -11.7031 C.3       9 UNK         0.0264 
     56 CB         31.5420    3.2079  -13.1834 C.3       9 UNK        -0.1955 
     57 C          32.8591    1.9384  -11.4383 C.2       9 UNK         0.5031 
     58 O          33.9569    2.4886  -11.3367 O.2       9 UNK        -0.5390 
     59 N          32.6733    0.6164  -11.3035 N.am      10 UNK        -0.4204 
     60 CA         33.7023   -0.3796  -10.9869 C.3       10 UNK         0.0237 
     61 CB         33.0570   -1.7755  -10.9748 C.3       10 UNK        -0.1985 
     62 C          34.4535   -0.1284   -9.6651 C.2       10 UNK         0.4970 
     63 O          35.5879   -0.5891   -9.5303 O.2       10 UNK        -0.4914 
     64 N          33.8296    0.6002   -8.7299 N.am      11 UNK        -0.4285 
     65 CA         34.4524    1.0583   -7.4793 C.3       11 UNK         0.1007 
     66 C          35.5085    2.1884   -7.6666 C.2       11 UNK         0.5703 
     67 N          35.6161    2.8266   -8.8277 N.am      11 UNK        -0.7361 
     68 O          36.2544    2.4866   -6.7367 O.2       11 UNK        -0.4986 
     69 C69        33.3959    1.4665   -6.4198 C.3       12 UNK        -0.0947 
     70 S70        32.1579    0.1689   -6.1005 S.3       12 UNK        -0.2240 
     71 C71        32.9358   -0.7519   -4.7400 C.3       12 UNK         0.0194 
     72 H72        25.8266   -6.0312   -3.8131 H         1 UNK         0.0906 
     73 H73        24.1506   -5.4875   -3.6999 H         1 UNK         0.0906 
     74 H74        24.9078   -6.3069   -2.3321 H         1 UNK         0.0906 
     75 H75        25.4983   -4.8995   -0.7146 H         1 UNK         0.3140 
     76 H76        26.1739   -3.1798    0.4573 H         1 UNK         0.1085 
     77 H77        27.8416   -1.5153   -0.4698 H         1 UNK         0.0836 
     78 H78        27.6670   -2.2582   -2.0439 H         1 UNK         0.0836 
     79 H79        30.3021   -1.7772   -0.5447 H         1 UNK         0.0731 
     80 H80        31.1848   -3.2652   -0.3189 H         1 UNK         0.0731 
     81 H81        31.8553   -0.9896   -2.2462 H         1 UNK         0.1312 
     82 H82        32.0218   -2.9682   -6.0461 H         1 UNK         0.1406 
     83 H83        29.8322   -4.7292   -2.8157 H         1 UNK         0.1631 
     84 H84        30.0328   -5.9418   -4.8240 H         1 UNK         0.0717 
     85 H85        31.4162   -5.5796   -5.8228 H         1 UNK         0.0717 
     86 H86        27.1451   -4.8683   -6.0208 H         1 UNK         0.0934 
     87 H87        28.0873   -3.9967   -4.8479 H         1 UNK         0.0934 
     88 H88        27.4652   -2.8471   -7.6087 H         1 UNK         0.0739 
     89 H89        25.6394   -2.9422   -5.3518 H         1 UNK         0.3093 
     90 H90        23.1322   -1.4818   -7.3742 H         1 UNK         0.0818 
     91 H91        23.4584   -3.7841   -6.3220 H         1 UNK         0.0819 
     92 H92        23.5730   -2.9883   -4.7513 H         1 UNK         0.0819 
     93 H93        22.1009   -2.8698   -5.6928 H         1 UNK         0.0819 
     94 H94        22.5100   -0.0115   -5.7895 H         1 UNK         0.3041 
     95 H95        24.1534    1.8648   -3.5372 H         1 UNK         0.0784 
     96 H96        22.3077    2.1667   -5.1766 H         1 UNK         0.0793 
     97 H97        21.3402    0.9347   -4.3723 H         1 UNK         0.0793 
     98 H98        21.7347    2.4315   -3.5426 H         1 UNK         0.0793 
     99 H99        23.9301    0.7304   -1.6429 H         1 UNK         0.3024 
    100 H100       22.8864   -0.3732    0.0714 H         1 UNK         0.1171 
    101 H101       21.1894   -2.7988   -0.7373 H         1 UNK         0.0786 
    102 H102       21.5732   -2.2924    0.9074 H         1 UNK         0.0786 
    103 H103       20.5607   -1.2815   -0.1105 H         1 UNK         0.0786 
    104 H104       23.5991   -3.0999   -0.6803 H         1 UNK         0.2977 
    105 H105       27.1623   -1.2558   -4.4186 H         1 UNK         0.3127 
    106 H106       29.7351    0.0905   -4.5710 H         1 UNK         0.0770 
    107 H107       28.8640   -0.3000   -2.3719 H         1 UNK         0.0814 
    108 H108       28.7634    1.4258   -2.6276 H         1 UNK         0.0814 
    109 H109       27.3075    0.4471   -2.7507 H         1 UNK         0.0814 
    110 H110       26.6075    0.6683   -5.9314 H         1 UNK         0.2983 
    111 H111       27.0574    3.5250   -6.4816 H         1 UNK         0.0947 
    112 H112       24.8422    1.6017   -7.3731 H         1 UNK         0.0806 
    113 H113       24.8552    3.3385   -7.6376 H         1 UNK         0.0806 
    114 H114       24.7641    2.7129   -6.0026 H         1 UNK         0.0806 
    115 H115       28.1832    0.6213   -7.9040 H         1 UNK         0.3000 
    116 H116       27.9672    1.4247  -10.6926 H         1 UNK         0.0850 
    117 H117       29.1997   -0.6580  -11.1167 H         1 UNK         0.0810 
    118 H118       27.9692   -0.9905   -9.9086 H         1 UNK         0.0810 
    119 H119       29.6542   -0.8031   -9.4262 H         1 UNK         0.0810 
    120 H120       29.7159    1.9156  -12.0810 H         1 UNK         0.3040 
    121 H121       31.7078    3.7041  -11.1014 H         1 UNK         0.0766 
    122 H122       31.4230    2.3436  -13.8381 H         1 UNK         0.0812 
    123 H123       32.4554    3.7221  -13.4865 H         1 UNK         0.0812 
    124 H124       30.7127    3.8901  -13.3711 H         1 UNK         0.0812 
    125 H125       31.7323    0.2687  -11.4091 H         1 UNK         0.3205 
    126 H126       34.4426   -0.3477  -11.7888 H         1 UNK         0.0754 
    127 H127       32.2850   -1.8562  -10.2079 H         1 UNK         0.0769 
    128 H128       33.8000   -2.5480  -10.7709 H         1 UNK         0.0769 
    129 H129       32.6029   -2.0133  -11.9370 H         1 UNK         0.0769 
    130 H130       32.8927    0.9373   -8.9056 H         1 UNK         0.2981 
    131 H131       35.0023    0.2094   -7.0686 H         1 UNK         0.0541 
    132 H132       36.3098    3.5505   -8.9255 H         1 UNK         0.3459 
    133 H133       35.0141    2.5996   -9.6119 H         1 UNK         0.3459 
    134 H134       32.8571    2.3560   -6.7519 H         1 UNK         0.0612 
    135 H135       33.8741    1.7360   -5.4764 H         1 UNK         0.0612 
    136 H136       33.2006   -0.0542   -3.9442 H         1 UNK         0.0624 
    137 H137       33.8687   -1.1933   -5.0932 H         1 UNK         0.0624 
@<TRIPOS>BOND
     1    1    2 1    
     2    1   72 1    
     3    1   73 1    
     4    1   74 1    
     5    2    3 2    
     6    2    4 am   BACKBONE|DICT|INTERRES
     7    4    5 1    
     8    4   75 1    
     9    5    6 1    
    10    5   35 1    
    11    5   76 1    
    12    6    7 1    
    13    6   77 1    
    14    6   78 1    
    15    7    8 1    
    16    8    9 1    
    17    8   79 1    
    18    8   80 1    
    19    9   10 ar   
    20    9   14 ar   
    21   10   11 ar   
    22   10   81 1    
    23   11   12 ar   
    24   11   71 1    
    25   12   13 ar   
    26   12   82 1    
    27   13   14 ar   
    28   13   15 1    
    29   14   83 1    
    30   15   16 1    
    31   15   84 1    
    32   15   85 1    
    33   16   17 1    
    34   17   18 1    
    35   17   86 1    
    36   17   87 1    
    37   18   19 1    
    38   18   37 1    
    39   18   88 1    
    40   19   20 am   BACKBONE|DICT|INTERRES
    41   19   89 1    
    42   20   21 2    
    43   20   22 1    
    44   22   23 1    
    45   22   24 1    
    46   22   90 1    
    47   23   91 1    
    48   23   92 1    
    49   23   93 1    
    50   24   25 am   BACKBONE|DICT|INTERRES
    51   24   94 1    
    52   25   26 2    
    53   25   27 1    
    54   27   28 1    
    55   27   29 1    
    56   27   95 1    
    57   28   96 1    
    58   28   97 1    
    59   28   98 1    
    60   29   30 am   BACKBONE|DICT|INTERRES
    61   29   99 1    
    62   30   31 2    
    63   30   32 1    
    64   32   33 1    
    65   32   34 1    
    66   32  100 1    
    67   33  101 1    
    68   33  102 1    
    69   33  103 1    
    70   34   35 am   BACKBONE|DICT|INTERRES
    71   34  104 1    
    72   35   36 2    
    73   37   38 2    
    74   37   39 am   BACKBONE|DICT|INTERRES
    75   39   40 1    
    76   39  105 1    
    77   40   41 1    
    78   40   42 1    
    79   40  106 1    
    80   41  107 1    
    81   41  108 1    
    82   41  109 1    
    83   42   43 2    
    84   42   44 am   BACKBONE|DICT|INTERRES
    85   44   45 1    
    86   44  110 1    
    87   45   46 1    
    88   45   47 1    
    89   45  111 1    
    90   46  112 1    
    91   46  113 1    
    92   46  114 1    
    93   47   48 2    
    94   47   49 am   BACKBONE|DICT|INTERRES
    95   49   50 1    
    96   49  115 1    
    97   50   51 1    
    98   50   52 1    
    99   50  116 1    
   100   51  117 1    
   101   51  118 1    
   102   51  119 1    
   103   52   53 2    
   104   52   54 am   BACKBONE|DICT|INTERRES
   105   54   55 1    
   106   54  120 1    
   107   55   56 1    
   108   55   57 1    
   109   55  121 1    
   110   56  122 1    
   111   56  123 1    
   112   56  124 1    
   113   57   58 2    
   114   57   59 am   BACKBONE|DICT|INTERRES
   115   59   60 1    
   116   59  125 1    
   117   60   61 1    
   118   60   62 1    
   119   60  126 1    
   120   61  127 1    
   121   61  128 1    
   122   61  129 1    
   123   62   63 2    
   124   62   64 am   BACKBONE|DICT|INTERRES
   125   64   65 1    
   126   64  130 1    
   127   65   66 1    
   128   65   69 1    
   129   65  131 1    
   130   66   67 am   BACKBONE|DICT|INTERRES
   131   66   68 2    
   132   67  132 1    
   133   67  133 1    
   134   69   70 1    
   135   69  134 1    
   136   69  135 1    
   137   70   71 1    
   138   71  136 1    
   139   71  137 1    
@<TRIPOS>SUBSTRUCTURE
     1 UNK         1 GROUP             0       ****    0 ROOT    
