@<TRIPOS>MOLECULE
3R137
137   139    1
SMALL
USER_CHARGES


@<TRIPOS>ATOM
      1 CA         24.4976   -5.2607   -3.0513 C.3       0 UNK        -0.2020 
      2 C          25.0581   -4.1998   -2.1157 C.2       0 UNK         0.4855 
      3 O          24.2896   -3.5170   -1.4385 O.2       0 UNK        -0.5197 
      4 N          26.3898   -4.0666   -2.0631 N.am      1 UNK        -0.4892 
      5 CA         27.1080   -3.1117   -1.2114 C.3       1 UNK         0.0835 
      6 C6         28.6386   -3.3510   -1.2091 C.3       12 UNK        -0.0855 
      7 S7         29.1294   -5.1027   -0.9886 S.3       12 UNK        -0.2931 
      8 C8         30.8270   -5.1427   -1.6725 C.3       12 UNK         0.0378 
      9 C9         30.9235   -4.4300   -3.0143 C.ar      12 UNK        -0.0802 
     10 C10        31.5964   -3.2069   -3.1099 C.ar      12 UNK        -0.0944 
     11 C11        31.5742   -2.4727   -4.2989 C.ar      12 UNK        -0.0787 
     12 C12        30.8683   -2.9797   -5.3947 C.ar      12 UNK        -0.0862 
     13 C13        30.2232   -4.2180   -5.3270 C.ar      12 UNK        -0.0733 
     14 C14        30.2674   -4.9470   -4.1351 C.ar      12 UNK        -0.0832 
     15 C15        29.4885   -4.7588   -6.5487 C.3       12 UNK         0.0240 
     16 S16        27.7632   -5.2533   -6.2146 S.3       12 UNK        -0.2522 
     17 C17        27.0119   -3.7289   -5.5565 C.3       12 UNK        -0.0967 
     18 CA         26.6624   -2.6881   -6.6553 C.3       5 UNK         0.0660 
     19 N          25.3259   -2.1093   -6.4753 N.am      5 UNK        -0.4015 
     20 C          24.7085   -1.3155   -7.3637 C.2       4 UNK         0.4946 
     21 O          25.1918   -0.9889   -8.4467 O.2       4 UNK        -0.5353 
     22 CA         23.3208   -0.7713   -6.9795 C.3       4 UNK         0.0277 
     23 CB         22.2228   -1.7490   -7.4280 C.3       4 UNK        -0.1981 
     24 N          23.1475   -0.4644   -5.5554 N.am      4 UNK        -0.4209 
     25 C          23.9188    0.3591   -4.8316 C.2       3 UNK         0.4942 
     26 O          24.9299    0.9104   -5.2723 O.2       3 UNK        -0.5208 
     27 CA         23.5232    0.5930   -3.3663 C.3       3 UNK         0.0250 
     28 CB         22.4187   -0.3469   -2.8343 C.3       3 UNK        -0.1990 
     29 N          24.7332    0.4374   -2.5757 N.am      3 UNK        -0.4232 
     30 C          25.0272    1.0119   -1.4104 C.2       2 UNK         0.4993 
     31 O          24.2584    1.7555   -0.7976 O.2       2 UNK        -0.5286 
     32 CA         26.4234    0.6806   -0.8408 C.3       2 UNK         0.0209 
     33 CB         26.6991    1.3880    0.4996 C.3       2 UNK        -0.1931 
     34 N          26.6508   -0.7607   -0.6700 N.am      2 UNK        -0.4546 
     35 C          26.8278   -1.6595   -1.6494 C.2       1 UNK         0.5154 
     36 O          26.8158   -1.3782   -2.8549 O.2       1 UNK        -0.5181 
     37 C          27.7328   -1.5866   -6.7528 C.2       5 UNK         0.5014 
     38 O          28.4251   -1.4925   -7.7686 O.2       5 UNK        -0.5248 
     39 N          27.8164   -0.7503   -5.7075 N.am      6 UNK        -0.4434 
     40 CA         28.7200    0.3969   -5.6442 C.3       6 UNK         0.0363 
     41 CB         28.6739    1.0183   -4.2407 C.3       6 UNK        -0.1936 
     42 C          28.4266    1.4524   -6.7202 C.2       6 UNK         0.5081 
     43 O          29.3703    1.9952   -7.2901 O.2       6 UNK        -0.5248 
     44 N          27.1416    1.7021   -7.0109 N.am      7 UNK        -0.4718 
     45 CA         26.7052    2.6239   -8.0638 C.3       7 UNK         0.0273 
     46 CB         25.1803    2.7997   -8.0048 C.3       7 UNK        -0.1935 
     47 C          27.1490    2.1920   -9.4727 C.2       7 UNK         0.5018 
     48 O          27.5642    3.0459  -10.2571 O.2       7 UNK        -0.5186 
     49 N          27.0671    0.8862   -9.7655 N.am      8 UNK        -0.4240 
     50 CA         27.5082    0.3029  -11.0324 C.3       8 UNK         0.0235 
     51 CB         26.8787   -1.0882  -11.2122 C.3       8 UNK        -0.2000 
     52 C          29.0383    0.2212  -11.1441 C.2       8 UNK         0.4941 
     53 O          29.5870    0.5995  -12.1800 O.2       8 UNK        -0.5273 
     54 N          29.6972   -0.2934  -10.0967 N.am      9 UNK        -0.4262 
     55 CA         31.1369   -0.5673  -10.0973 C.3       9 UNK         0.0264 
     56 CB         31.4412   -1.6190   -9.0242 C.3       9 UNK        -0.1955 
     57 C          32.0164    0.6699   -9.8588 C.2       9 UNK         0.5031 
     58 O          33.1941    0.6345  -10.2202 O.2       9 UNK        -0.5390 
     59 N          31.4707    1.7054   -9.2046 N.am      10 UNK        -0.4204 
     60 CA         32.1225    2.9270   -8.7103 C.3       10 UNK         0.0237 
     61 CB         32.8086    3.7266   -9.8362 C.3       10 UNK        -0.1985 
     62 C          33.0728    2.6774   -7.5245 C.2       10 UNK         0.4970 
     63 O          32.9799    3.3924   -6.5263 O.2       10 UNK        -0.4914 
     64 N          33.9544    1.6762   -7.6500 N.am      11 UNK        -0.4285 
     65 CA         34.9359    1.2297   -6.6440 C.3       11 UNK         0.1007 
     66 C          36.0171    2.2917   -6.2691 C.2       11 UNK         0.5703 
     67 N          36.2614    3.3027   -7.0951 N.am      11 UNK        -0.7361 
     68 O          36.6736    2.1848   -5.2355 O.2       11 UNK        -0.4986 
     69 C69        34.2661    0.5704   -5.4014 C.3       12 UNK        -0.0947 
     70 S70        33.3599   -0.9547   -5.8244 S.3       12 UNK        -0.2240 
     71 C71        32.2747   -1.1177   -4.3701 C.3       12 UNK         0.0194 
     72 H72        23.8559   -5.9455   -2.4975 H         1 UNK         0.0906 
     73 H73        25.2856   -5.8474   -3.5236 H         1 UNK         0.0906 
     74 H74        23.9005   -4.7949   -3.8346 H         1 UNK         0.0906 
     75 H75        26.9806   -4.6658   -2.6213 H         1 UNK         0.3140 
     76 H76        26.7377   -3.2493   -0.1931 H         1 UNK         0.1085 
     77 H77        29.0468   -2.9775   -2.1475 H         1 UNK         0.0836 
     78 H78        29.1146   -2.7631   -0.4219 H         1 UNK         0.0836 
     79 H79        31.5080   -4.6939   -0.9476 H         1 UNK         0.0731 
     80 H80        31.1423   -6.1806   -1.7877 H         1 UNK         0.0731 
     81 H81        32.1030   -2.8058   -2.2426 H         1 UNK         0.1312 
     82 H82        30.8229   -2.4076   -6.3065 H         1 UNK         0.1406 
     83 H83        29.7489   -5.8936   -4.0638 H         1 UNK         0.1631 
     84 H84        29.4913   -4.0295   -7.3599 H         1 UNK         0.0717 
     85 H85        30.0315   -5.6276   -6.9226 H         1 UNK         0.0717 
     86 H86        26.1004   -4.0518   -5.0565 H         1 UNK         0.0934 
     87 H87        27.6370   -3.3206   -4.7592 H         1 UNK         0.0934 
     88 H88        26.6384   -3.1940   -7.6233 H         1 UNK         0.0739 
     89 H89        24.8560   -2.3021   -5.6043 H         1 UNK         0.3093 
     90 H90        23.1796    0.1630   -7.5253 H         1 UNK         0.0818 
     91 H91        21.2286   -1.3278   -7.2770 H         1 UNK         0.0819 
     92 H92        22.3152   -1.9784   -8.4908 H         1 UNK         0.0819 
     93 H93        22.2744   -2.6938   -6.8855 H         1 UNK         0.0819 
     94 H94        22.3447   -0.8766   -5.1021 H         1 UNK         0.3041 
     95 H95        23.1786    1.6263   -3.2909 H         1 UNK         0.0784 
     96 H96        21.4838   -0.2175   -3.3808 H         1 UNK         0.0793 
     97 H97        22.7109   -1.3962   -2.8996 H         1 UNK         0.0793 
     98 H98        22.1997   -0.1366   -1.7872 H         1 UNK         0.0793 
     99 H99        25.4480   -0.1608   -2.9854 H         1 UNK         0.3024 
    100 H100       27.1518    1.0542   -1.5635 H         1 UNK         0.1171 
    101 H101       27.7151    1.1997    0.8471 H         1 UNK         0.0786 
    102 H102       26.5896    2.4691    0.4016 H         1 UNK         0.0786 
    103 H103       26.0101    1.0596    1.2788 H         1 UNK         0.0786 
    104 H104       26.6547   -1.0894    0.2850 H         1 UNK         0.2977 
    105 H105       27.2284   -0.9073   -4.8966 H         1 UNK         0.3127 
    106 H106       29.7305    0.0266   -5.8249 H         1 UNK         0.0770 
    107 H107       27.6729    1.3750   -3.9950 H         1 UNK         0.0814 
    108 H108       29.3533    1.8686   -4.1681 H         1 UNK         0.0814 
    109 H109       28.9735    0.2980   -3.4791 H         1 UNK         0.0814 
    110 H110       26.4141    1.2489   -6.4626 H         1 UNK         0.2983 
    111 H111       27.1656    3.5931   -7.8596 H         1 UNK         0.0947 
    112 H112       24.8424    3.5257   -8.7455 H         1 UNK         0.0806 
    113 H113       24.8585    3.1587   -7.0271 H         1 UNK         0.0806 
    114 H114       24.6616    1.8631   -8.2063 H         1 UNK         0.0806 
    115 H115       26.6634    0.2496   -9.0840 H         1 UNK         0.3000 
    116 H116       27.1497    0.9390  -11.8448 H         1 UNK         0.0850 
    117 H117       25.7903   -1.0292  -11.2305 H         1 UNK         0.0810 
    118 H118       27.1603   -1.7671  -10.4058 H         1 UNK         0.0810 
    119 H119       27.1952   -1.5441  -12.1513 H         1 UNK         0.0810 
    120 H120       29.1701   -0.6093   -9.2840 H         1 UNK         0.3040 
    121 H121       31.4105   -0.9853  -11.0685 H         1 UNK         0.0766 
    122 H122       30.8391   -2.5182   -9.1552 H         1 UNK         0.0812 
    123 H123       31.2401   -1.2135   -8.0342 H         1 UNK         0.0812 
    124 H124       32.4902   -1.9178   -9.0481 H         1 UNK         0.0812 
    125 H125       30.5198    1.5950   -8.8625 H         1 UNK         0.3205 
    126 H126       31.3108    3.5488   -8.3293 H         1 UNK         0.0754 
    127 H127       33.6681    3.2018  -10.2535 H         1 UNK         0.0769 
    128 H128       33.1680    4.6866   -9.4635 H         1 UNK         0.0769 
    129 H129       32.1150    3.9345  -10.6510 H         1 UNK         0.0769 
    130 H130       33.9489    1.1650   -8.5280 H         1 UNK         0.2981 
    131 H131       35.5107    0.4485   -7.1422 H         1 UNK         0.0541 
    132 H132       35.7433    3.3977   -7.9534 H         1 UNK         0.3459 
    133 H133       36.9691    3.9780   -6.8527 H         1 UNK         0.3459 
    134 H134       33.5912    1.2725   -4.9097 H         1 UNK         0.0612 
    135 H135       35.0130    0.2915   -4.6565 H         1 UNK         0.0612 
    136 H136       31.5287   -0.3236   -4.3847 H         1 UNK         0.0624 
    137 H137       32.8771   -0.9583   -3.4744 H         1 UNK         0.0624 
@<TRIPOS>BOND
     1    1    2 1    
     2    1   72 1    
     3    1   73 1    
     4    1   74 1    
     5    2    3 2    
     6    2    4 am   BACKBONE|DICT|INTERRES
     7    4    5 1    
     8    4   75 1    
     9    5    6 1    
    10    5   35 1    
    11    5   76 1    
    12    6    7 1    
    13    6   77 1    
    14    6   78 1    
    15    7    8 1    
    16    8    9 1    
    17    8   79 1    
    18    8   80 1    
    19    9   10 ar   
    20    9   14 ar   
    21   10   11 ar   
    22   10   81 1    
    23   11   12 ar   
    24   11   71 1    
    25   12   13 ar   
    26   12   82 1    
    27   13   14 ar   
    28   13   15 1    
    29   14   83 1    
    30   15   16 1    
    31   15   84 1    
    32   15   85 1    
    33   16   17 1    
    34   17   18 1    
    35   17   86 1    
    36   17   87 1    
    37   18   19 1    
    38   18   37 1    
    39   18   88 1    
    40   19   20 am   BACKBONE|DICT|INTERRES
    41   19   89 1    
    42   20   21 2    
    43   20   22 1    
    44   22   23 1    
    45   22   24 1    
    46   22   90 1    
    47   23   91 1    
    48   23   92 1    
    49   23   93 1    
    50   24   25 am   BACKBONE|DICT|INTERRES
    51   24   94 1    
    52   25   26 2    
    53   25   27 1    
    54   27   28 1    
    55   27   29 1    
    56   27   95 1    
    57   28   96 1    
    58   28   97 1    
    59   28   98 1    
    60   29   30 am   BACKBONE|DICT|INTERRES
    61   29   99 1    
    62   30   31 2    
    63   30   32 1    
    64   32   33 1    
    65   32   34 1    
    66   32  100 1    
    67   33  101 1    
    68   33  102 1    
    69   33  103 1    
    70   34   35 am   BACKBONE|DICT|INTERRES
    71   34  104 1    
    72   35   36 2    
    73   37   38 2    
    74   37   39 am   BACKBONE|DICT|INTERRES
    75   39   40 1    
    76   39  105 1    
    77   40   41 1    
    78   40   42 1    
    79   40  106 1    
    80   41  107 1    
    81   41  108 1    
    82   41  109 1    
    83   42   43 2    
    84   42   44 am   BACKBONE|DICT|INTERRES
    85   44   45 1    
    86   44  110 1    
    87   45   46 1    
    88   45   47 1    
    89   45  111 1    
    90   46  112 1    
    91   46  113 1    
    92   46  114 1    
    93   47   48 2    
    94   47   49 am   BACKBONE|DICT|INTERRES
    95   49   50 1    
    96   49  115 1    
    97   50   51 1    
    98   50   52 1    
    99   50  116 1    
   100   51  117 1    
   101   51  118 1    
   102   51  119 1    
   103   52   53 2    
   104   52   54 am   BACKBONE|DICT|INTERRES
   105   54   55 1    
   106   54  120 1    
   107   55   56 1    
   108   55   57 1    
   109   55  121 1    
   110   56  122 1    
   111   56  123 1    
   112   56  124 1    
   113   57   58 2    
   114   57   59 am   BACKBONE|DICT|INTERRES
   115   59   60 1    
   116   59  125 1    
   117   60   61 1    
   118   60   62 1    
   119   60  126 1    
   120   61  127 1    
   121   61  128 1    
   122   61  129 1    
   123   62   63 2    
   124   62   64 am   BACKBONE|DICT|INTERRES
   125   64   65 1    
   126   64  130 1    
   127   65   66 1    
   128   65   69 1    
   129   65  131 1    
   130   66   67 am   BACKBONE|DICT|INTERRES
   131   66   68 2    
   132   67  132 1    
   133   67  133 1    
   134   69   70 1    
   135   69  134 1    
   136   69  135 1    
   137   70   71 1    
   138   71  136 1    
   139   71  137 1    
@<TRIPOS>SUBSTRUCTURE
     1 UNK         1 GROUP             0       ****    0 ROOT    
