@<TRIPOS>MOLECULE
3R137
137   139    1
SMALL
USER_CHARGES


@<TRIPOS>ATOM
      1 CA         23.9516   -5.1496   -1.8939 C.3       0 UNK        -0.2020 
      2 C          24.4891   -3.7952   -1.4593 C.2       0 UNK         0.4855 
      3 O          23.7249   -2.9387   -1.0125 O.2       0 UNK        -0.5197 
      4 N          25.8068   -3.6022   -1.5865 N.am      1 UNK        -0.4892 
      5 CA         26.5391   -2.3792   -1.2446 C.3       1 UNK         0.0835 
      6 C6         28.0562   -2.6156   -1.3902 C.3       12 UNK        -0.0855 
      7 S7         29.0921   -1.3934   -0.5208 S.3       12 UNK        -0.2931 
      8 C8         30.7435   -2.1487   -0.7095 C.3       12 UNK         0.0378 
      9 C9         31.1461   -2.2869   -2.1728 C.ar      12 UNK        -0.0802 
     10 C10        31.8785   -1.2793   -2.8077 C.ar      12 UNK        -0.0944 
     11 C11        32.2283   -1.4043   -4.1558 C.ar      12 UNK        -0.0787 
     12 C12        31.8164   -2.5308   -4.8746 C.ar      12 UNK        -0.0862 
     13 C13        31.0796   -3.5424   -4.2531 C.ar      12 UNK        -0.0733 
     14 C14        30.7791   -3.4275   -2.8945 C.ar      12 UNK        -0.0832 
     15 C15        30.6264   -4.7739   -5.0289 C.3       12 UNK         0.0240 
     16 S16        29.6036   -4.3841   -6.4886 S.3       12 UNK        -0.2522 
     17 C17        28.1357   -3.5516   -5.7845 C.3       12 UNK        -0.0967 
     18 CA         27.7183   -2.3278   -6.6426 C.3       5 UNK         0.0660 
     19 N          26.2653   -2.0859   -6.6268 N.am      5 UNK        -0.4015 
     20 C          25.6311   -1.2140   -7.4245 C.2       4 UNK         0.4946 
     21 O          26.2009   -0.3366   -8.0705 O.2       4 UNK        -0.5353 
     22 CA         24.1084   -1.3510   -7.5877 C.3       4 UNK         0.0277 
     23 CB         23.7366   -2.6512   -8.3293 C.3       4 UNK        -0.1981 
     24 N          23.3298   -1.1803   -6.3591 N.am      4 UNK        -0.4209 
     25 C          23.2675   -1.9812   -5.2896 C.2       3 UNK         0.4942 
     26 O          23.9445   -3.0015   -5.1411 O.2       3 UNK        -0.5208 
     27 CA         22.2905   -1.5340   -4.1893 C.3       3 UNK         0.0250 
     28 CB         21.4664   -2.7051   -3.6298 C.3       3 UNK        -0.1990 
     29 N          23.0427   -0.8871   -3.1182 N.am      3 UNK        -0.4232 
     30 C          23.5437    0.3538   -3.2145 C.2       2 UNK         0.4993 
     31 O          23.2456    1.1330   -4.1191 O.2       2 UNK        -0.5286 
     32 CA         24.5681    0.8025   -2.1565 C.3       2 UNK         0.0209 
     33 CB         23.8974    1.6911   -1.0969 C.3       2 UNK        -0.1931 
     34 N          25.2522   -0.3102   -1.4927 N.am      2 UNK        -0.4546 
     35 C          26.0534   -1.1935   -2.1045 C.2       1 UNK         0.5154 
     36 O          26.3640   -1.1288   -3.2979 O.2       1 UNK        -0.5181 
     37 C          28.5835   -1.0847   -6.3454 C.2       5 UNK         0.5014 
     38 O          29.5471   -0.8342   -7.0749 O.2       5 UNK        -0.5248 
     39 N          28.2181   -0.3224   -5.3060 N.am      6 UNK        -0.4434 
     40 CA         28.8796    0.9359   -4.9532 C.3       6 UNK         0.0363 
     41 CB         28.8459    1.1199   -3.4293 C.3       6 UNK        -0.1936 
     42 C          28.2522    2.1543   -5.6523 C.2       6 UNK         0.5081 
     43 O          28.9250    3.1775   -5.7739 O.2       6 UNK        -0.5248 
     44 N          26.9857    2.0475   -6.0821 N.am      7 UNK        -0.4718 
     45 CA         26.2484    3.1197   -6.7604 C.3       7 UNK         0.0273 
     46 CB         24.7402    2.8294   -6.7241 C.3       7 UNK        -0.1935 
     47 C          26.7362    3.3315   -8.2000 C.2       7 UNK         0.5018 
     48 O          27.0915    4.4517   -8.5675 O.2       7 UNK        -0.5186 
     49 N          26.7978    2.2392   -8.9690 N.am      8 UNK        -0.4240 
     50 CA         27.4523    2.1603  -10.2715 C.3       8 UNK         0.0235 
     51 CB         26.5682    1.3376  -11.2278 C.3       8 UNK        -0.2000 
     52 C          28.8305    1.5289  -10.0313 C.2       8 UNK         0.4941 
     53 O          29.0680    0.3998  -10.4610 O.2       8 UNK        -0.5273 
     54 N          29.6595    2.2690   -9.2769 N.am      9 UNK        -0.4262 
     55 CA         30.9021    1.8808   -8.6023 C.3       9 UNK         0.0264 
     56 CB         31.6839    3.1538   -8.2310 C.3       9 UNK        -0.1955 
     57 C          31.7932    0.8852   -9.3619 C.2       9 UNK         0.5031 
     58 O          32.6296    1.3004  -10.1683 O.2       9 UNK        -0.5390 
     59 N          31.6376   -0.4086   -9.0456 N.am      10 UNK        -0.4204 
     60 CA         32.4552   -1.5026   -9.5884 C.3       10 UNK         0.0237 
     61 CB         31.8292   -2.8501   -9.1980 C.3       10 UNK        -0.1985 
     62 C          33.9345   -1.4322   -9.1578 C.2       10 UNK         0.4970 
     63 O          34.7869   -2.0408   -9.8051 O.2       10 UNK        -0.4914 
     64 N          34.2047   -0.6663   -8.0946 N.am      11 UNK        -0.4285 
     65 CA         35.5346   -0.2624   -7.6242 C.3       11 UNK         0.1007 
     66 C          36.2751    0.7246   -8.5757 C.2       11 UNK         0.5703 
     67 N          35.6154    1.3521   -9.5446 N.am      11 UNK        -0.7361 
     68 O          37.4794    0.9206   -8.4320 O.2       11 UNK        -0.4986 
     69 C69        35.4600    0.3187   -6.1861 C.3       12 UNK        -0.0947 
     70 S70        34.7939   -0.8759   -4.9807 S.3       12 UNK        -0.2240 
     71 C71        33.0606   -0.3355   -4.8428 C.3       12 UNK         0.0194 
     72 H72        22.9881   -5.3485   -1.4250 H         1 UNK         0.0906 
     73 H73        24.6333   -5.9523   -1.6136 H         1 UNK         0.0906 
     74 H74        23.8181   -5.1727   -2.9754 H         1 UNK         0.0906 
     75 H75        26.3637   -4.3409   -1.9913 H         1 UNK         0.3140 
     76 H76        26.3288   -2.1635   -0.1946 H         1 UNK         0.1085 
     77 H77        28.3274   -2.6328   -2.4455 H         1 UNK         0.0836 
     78 H78        28.3159   -3.5961   -0.9873 H         1 UNK         0.0836 
     79 H79        31.4738   -1.5365   -0.1781 H         1 UNK         0.0731 
     80 H80        30.7547   -3.1246   -0.2215 H         1 UNK         0.0731 
     81 H81        32.1791   -0.4017   -2.2518 H         1 UNK         0.1312 
     82 H82        32.0776   -2.6226   -5.9181 H         1 UNK         0.1406 
     83 H83        30.2301   -4.2174   -2.4009 H         1 UNK         0.1631 
     84 H84        30.0669   -5.4565   -4.3875 H         1 UNK         0.0717 
     85 H85        31.5098   -5.3213   -5.3601 H         1 UNK         0.0717 
     86 H86        27.3345   -4.2919   -5.7631 H         1 UNK         0.0934 
     87 H87        28.3066   -3.2697   -4.7447 H         1 UNK         0.0934 
     88 H88        27.9249   -2.5800   -7.6855 H         1 UNK         0.0739 
     89 H89        25.6895   -2.7056   -6.0643 H         1 UNK         0.3093 
     90 H90        23.7988   -0.5267   -8.2328 H         1 UNK         0.0818 
     91 H91        24.2626   -2.7178   -9.2827 H         1 UNK         0.0819 
     92 H92        23.9933   -3.5431   -7.7572 H         1 UNK         0.0819 
     93 H93        22.6693   -2.6906   -8.5467 H         1 UNK         0.0819 
     94 H94        22.7871   -0.3274   -6.3189 H         1 UNK         0.3041 
     95 H95        21.5829   -0.8153   -4.6092 H         1 UNK         0.0784 
     96 H96        20.8626   -3.1623   -4.4146 H         1 UNK         0.0793 
     97 H97        22.0960   -3.4874   -3.2119 H         1 UNK         0.0793 
     98 H98        20.7848   -2.3720   -2.8470 H         1 UNK         0.0793 
     99 H99        23.3465   -1.4820   -2.3528 H         1 UNK         0.3024 
    100 H100       25.3227    1.3956   -2.6778 H         1 UNK         0.1171 
    101 H101       24.6274    2.0882   -0.3912 H         1 UNK         0.0786 
    102 H102       23.4012    2.5447   -1.5612 H         1 UNK         0.0786 
    103 H103       23.1428    1.1440   -0.5302 H         1 UNK         0.0786 
    104 H104       25.0160   -0.4665   -0.5229 H         1 UNK         0.2977 
    105 H105       27.4486   -0.6243   -4.7087 H         1 UNK         0.3127 
    106 H106       29.9291    0.8896   -5.2523 H         1 UNK         0.0770 
    107 H107       27.8274    1.2083   -3.0518 H         1 UNK         0.0814 
    108 H108       29.3209    0.2793   -2.9255 H         1 UNK         0.0814 
    109 H109       29.3839    2.0210   -3.1324 H         1 UNK         0.0814 
    110 H110       26.5221    1.1557   -5.9890 H         1 UNK         0.2983 
    111 H111       26.4220    4.0515   -6.2169 H         1 UNK         0.0947 
    112 H112       24.4984    1.8555   -7.1497 H         1 UNK         0.0806 
    113 H113       24.1828    3.5801   -7.2861 H         1 UNK         0.0806 
    114 H114       24.3649    2.8543   -5.7021 H         1 UNK         0.0806 
    115 H115       26.5424    1.3387   -8.5611 H         1 UNK         0.3000 
    116 H116       27.5967    3.1531  -10.7033 H         1 UNK         0.0850 
    117 H117       27.0383    1.2408  -12.2071 H         1 UNK         0.0810 
    118 H118       25.5991    1.8138  -11.3768 H         1 UNK         0.0810 
    119 H119       26.3896    0.3304  -10.8481 H         1 UNK         0.0810 
    120 H120       29.3108    3.1796   -9.0108 H         1 UNK         0.3040 
    121 H121       30.6091    1.4119   -7.6634 H         1 UNK         0.0766 
    122 H122       31.9364    3.7432   -9.1134 H         1 UNK         0.0812 
    123 H123       32.6187    2.9077   -7.7251 H         1 UNK         0.0812 
    124 H124       31.1111    3.7893   -7.5550 H         1 UNK         0.0812 
    125 H125       30.8897   -0.6597   -8.3983 H         1 UNK         0.3205 
    126 H126       32.4331   -1.4207  -10.6770 H         1 UNK         0.0754 
    127 H127       32.3849   -3.6815   -9.6336 H         1 UNK         0.0769 
    128 H128       30.8004   -2.9267   -9.5511 H         1 UNK         0.0769 
    129 H129       31.8210   -2.9937   -8.1190 H         1 UNK         0.0769 
    130 H130       33.4276   -0.2193   -7.6373 H         1 UNK         0.2981 
    131 H131       36.1494   -1.1637   -7.5893 H         1 UNK         0.0541 
    132 H132       34.6216    1.2123   -9.6883 H         1 UNK         0.3459 
    133 H133       36.1199    1.9822  -10.1474 H         1 UNK         0.3459 
    134 H134       34.8621    1.2320   -6.1654 H         1 UNK         0.0612 
    135 H135       36.4556    0.6009   -5.8385 H         1 UNK         0.0612 
    136 H136       33.0173    0.6055   -4.2922 H         1 UNK         0.0624 
    137 H137       32.6439   -0.1368   -5.8304 H         1 UNK         0.0624 
@<TRIPOS>BOND
     1    1    2 1    
     2    1   72 1    
     3    1   73 1    
     4    1   74 1    
     5    2    3 2    
     6    2    4 am   BACKBONE|DICT|INTERRES
     7    4    5 1    
     8    4   75 1    
     9    5    6 1    
    10    5   35 1    
    11    5   76 1    
    12    6    7 1    
    13    6   77 1    
    14    6   78 1    
    15    7    8 1    
    16    8    9 1    
    17    8   79 1    
    18    8   80 1    
    19    9   10 ar   
    20    9   14 ar   
    21   10   11 ar   
    22   10   81 1    
    23   11   12 ar   
    24   11   71 1    
    25   12   13 ar   
    26   12   82 1    
    27   13   14 ar   
    28   13   15 1    
    29   14   83 1    
    30   15   16 1    
    31   15   84 1    
    32   15   85 1    
    33   16   17 1    
    34   17   18 1    
    35   17   86 1    
    36   17   87 1    
    37   18   19 1    
    38   18   37 1    
    39   18   88 1    
    40   19   20 am   BACKBONE|DICT|INTERRES
    41   19   89 1    
    42   20   21 2    
    43   20   22 1    
    44   22   23 1    
    45   22   24 1    
    46   22   90 1    
    47   23   91 1    
    48   23   92 1    
    49   23   93 1    
    50   24   25 am   BACKBONE|DICT|INTERRES
    51   24   94 1    
    52   25   26 2    
    53   25   27 1    
    54   27   28 1    
    55   27   29 1    
    56   27   95 1    
    57   28   96 1    
    58   28   97 1    
    59   28   98 1    
    60   29   30 am   BACKBONE|DICT|INTERRES
    61   29   99 1    
    62   30   31 2    
    63   30   32 1    
    64   32   33 1    
    65   32   34 1    
    66   32  100 1    
    67   33  101 1    
    68   33  102 1    
    69   33  103 1    
    70   34   35 am   BACKBONE|DICT|INTERRES
    71   34  104 1    
    72   35   36 2    
    73   37   38 2    
    74   37   39 am   BACKBONE|DICT|INTERRES
    75   39   40 1    
    76   39  105 1    
    77   40   41 1    
    78   40   42 1    
    79   40  106 1    
    80   41  107 1    
    81   41  108 1    
    82   41  109 1    
    83   42   43 2    
    84   42   44 am   BACKBONE|DICT|INTERRES
    85   44   45 1    
    86   44  110 1    
    87   45   46 1    
    88   45   47 1    
    89   45  111 1    
    90   46  112 1    
    91   46  113 1    
    92   46  114 1    
    93   47   48 2    
    94   47   49 am   BACKBONE|DICT|INTERRES
    95   49   50 1    
    96   49  115 1    
    97   50   51 1    
    98   50   52 1    
    99   50  116 1    
   100   51  117 1    
   101   51  118 1    
   102   51  119 1    
   103   52   53 2    
   104   52   54 am   BACKBONE|DICT|INTERRES
   105   54   55 1    
   106   54  120 1    
   107   55   56 1    
   108   55   57 1    
   109   55  121 1    
   110   56  122 1    
   111   56  123 1    
   112   56  124 1    
   113   57   58 2    
   114   57   59 am   BACKBONE|DICT|INTERRES
   115   59   60 1    
   116   59  125 1    
   117   60   61 1    
   118   60   62 1    
   119   60  126 1    
   120   61  127 1    
   121   61  128 1    
   122   61  129 1    
   123   62   63 2    
   124   62   64 am   BACKBONE|DICT|INTERRES
   125   64   65 1    
   126   64  130 1    
   127   65   66 1    
   128   65   69 1    
   129   65  131 1    
   130   66   67 am   BACKBONE|DICT|INTERRES
   131   66   68 2    
   132   67  132 1    
   133   67  133 1    
   134   69   70 1    
   135   69  134 1    
   136   69  135 1    
   137   70   71 1    
   138   71  136 1    
   139   71  137 1    
@<TRIPOS>SUBSTRUCTURE
     1 UNK         1 GROUP             0       ****    0 ROOT    
