@<TRIPOS>MOLECULE
3R137
137   139    1
SMALL
USER_CHARGES


@<TRIPOS>ATOM
      1 CA         26.1152   -8.5951   -2.2687 C.3       0 UNK        -0.2020 
      2 C          26.8071   -7.5341   -1.4260 C.2       0 UNK         0.4855 
      3 O          27.6305   -7.8684   -0.5739 O.2       0 UNK        -0.5197 
      4 N          26.4785   -6.2597   -1.6549 N.am      1 UNK        -0.4892 
      5 CA         26.9943   -5.0982   -0.9341 C.3       1 UNK         0.0835 
      6 C6         28.4152   -4.7066   -1.4138 C.3       12 UNK        -0.0855 
      7 S7         29.3024   -3.6549   -0.2213 S.3       12 UNK        -0.2931 
      8 C8         30.8308   -3.3103   -1.1491 C.3       12 UNK         0.0378 
      9 C9         30.6047   -2.3210   -2.2845 C.ar      12 UNK        -0.0802 
     10 C10        30.6757   -2.7351   -3.6189 C.ar      12 UNK        -0.0944 
     11 C11        30.5175   -1.8108   -4.6572 C.ar      12 UNK        -0.0787 
     12 C12        30.2756   -0.4685   -4.3524 C.ar      12 UNK        -0.0862 
     13 C13        30.1729   -0.0471   -3.0235 C.ar      12 UNK        -0.0733 
     14 C14        30.3501   -0.9775   -1.9954 C.ar      12 UNK        -0.0832 
     15 C15        29.8811    1.4079   -2.6822 C.3       12 UNK         0.0240 
     16 S16        28.1791    1.6087   -2.0615 S.3       12 UNK        -0.2522 
     17 C17        27.2990    2.3732   -3.4669 C.3       12 UNK        -0.0967 
     18 CA         27.2821    1.5246   -4.7607 C.3       5 UNK         0.0660 
     19 N          26.7361    0.1763   -4.5620 N.am      5 UNK        -0.4015 
     20 C          26.7519   -0.7921   -5.4930 C.2       4 UNK         0.4946 
     21 O          27.2989   -0.6637   -6.5879 O.2       4 UNK        -0.5353 
     22 CA         25.9869   -2.0972   -5.2017 C.3       4 UNK         0.0277 
     23 CB         26.9719   -3.1693   -4.7218 C.3       4 UNK        -0.1981 
     24 N          24.8993   -1.9676   -4.2256 N.am      4 UNK        -0.4209 
     25 C          23.8855   -1.0893   -4.2888 C.2       3 UNK         0.4942 
     26 O          23.7115   -0.3181   -5.2326 O.2       3 UNK        -0.5208 
     27 CA         22.9361   -1.0048   -3.0789 C.3       3 UNK         0.0250 
     28 CB         21.6068   -1.7097   -3.3919 C.3       3 UNK        -0.1990 
     29 N          23.4850   -1.5466   -1.8310 N.am      3 UNK        -0.4232 
     30 C          24.6120   -1.1496   -1.2202 C.2       2 UNK         0.4993 
     31 O          25.3334   -0.2446   -1.6396 O.2       2 UNK        -0.5286 
     32 CA         25.0161   -1.9133    0.0558 C.3       2 UNK         0.0209 
     33 CB         23.8046   -2.4753    0.8332 C.3       2 UNK        -0.1931 
     34 N          25.9963   -2.9867   -0.1734 N.am      2 UNK        -0.4546 
     35 C          25.9529   -3.9709   -1.0844 C.2       1 UNK         0.5154 
     36 O          25.1209   -4.0371   -1.9963 O.2       1 UNK        -0.5181 
     37 C          26.6128    2.2997   -5.9175 C.2       5 UNK         0.5014 
     38 O          27.2489    3.2003   -6.4664 O.2       5 UNK        -0.5248 
     39 N          25.3898    1.9169   -6.3224 N.am      6 UNK        -0.4434 
     40 CA         24.7154    2.4350   -7.5174 C.3       6 UNK         0.0363 
     41 CB         23.2621    1.9364   -7.5427 C.3       6 UNK        -0.1936 
     42 C          25.4281    2.0771   -8.8379 C.2       6 UNK         0.5081 
     43 O          25.2147    2.7696   -9.8332 O.2       6 UNK        -0.5248 
     44 N          26.2715    1.0317   -8.8340 N.am      7 UNK        -0.4718 
     45 CA         27.1221    0.6534   -9.9673 C.3       7 UNK         0.0273 
     46 CB         27.4808   -0.8368   -9.8573 C.3       7 UNK        -0.1935 
     47 C          28.3905    1.5231  -10.0854 C.2       7 UNK         0.5018 
     48 O          29.0685    1.4396  -11.1112 O.2       7 UNK        -0.5186 
     49 N          28.6776    2.3398   -9.0561 N.am      8 UNK        -0.4240 
     50 CA         29.7036    3.3854   -8.9764 C.3       8 UNK         0.0235 
     51 CB         29.1971    4.6557   -9.6947 C.3       8 UNK        -0.2000 
     52 C          31.0930    2.9215   -9.4499 C.2       8 UNK         0.4941 
     53 O          31.7726    2.1992   -8.7178 O.2       8 UNK        -0.5273 
     54 N          31.4727    3.3143  -10.6748 N.am      9 UNK        -0.4262 
     55 CA         32.7382    3.0085  -11.3509 C.3       9 UNK         0.0264 
     56 CB         32.7541    3.7149  -12.7167 C.3       9 UNK        -0.1955 
     57 C          33.0573    1.5097  -11.5168 C.2       9 UNK         0.5031 
     58 O          34.2149    1.1793  -11.7787 O.2       9 UNK        -0.5390 
     59 N          32.0602    0.6295  -11.3377 N.am      10 UNK        -0.4204 
     60 CA         32.2427   -0.8212  -11.2326 C.3       10 UNK         0.0237 
     61 CB         30.8697   -1.5026  -11.1472 C.3       10 UNK        -0.1985 
     62 C          33.1177   -1.2445  -10.0352 C.2       10 UNK         0.4970 
     63 O          33.8170   -2.2529  -10.1437 O.2       10 UNK        -0.4914 
     64 N          33.0753   -0.4717   -8.9405 N.am      11 UNK        -0.4285 
     65 CA         33.9313   -0.6410   -7.7557 C.3       11 UNK         0.1007 
     66 C          34.8295    0.5976   -7.4917 C.2       11 UNK         0.5703 
     67 N          34.4296    1.8070   -7.8666 N.am      11 UNK        -0.7361 
     68 O          35.9215    0.4557   -6.9464 O.2       11 UNK        -0.4986 
     69 C69        33.1113   -0.9950   -6.4895 C.3       12 UNK        -0.0947 
     70 S70        32.3145   -2.6322   -6.6061 S.3       12 UNK        -0.2240 
     71 C71        30.6044   -2.2589   -6.1103 C.3       12 UNK         0.0194 
     72 H72        25.4181   -8.1577   -2.9834 H         1 UNK         0.0906 
     73 H73        26.8533   -9.1721   -2.8253 H         1 UNK         0.0906 
     74 H74        25.5595   -9.2797   -1.6284 H         1 UNK         0.0906 
     75 H75        25.7529   -6.0179   -2.3213 H         1 UNK         0.3140 
     76 H76        27.0340   -5.3628    0.1254 H         1 UNK         0.1085 
     77 H77        28.3870   -4.2254   -2.3891 H         1 UNK         0.0836 
     78 H78        29.0219   -5.6034   -1.5487 H         1 UNK         0.0836 
     79 H79        31.2498   -4.2461   -1.5226 H         1 UNK         0.0731 
     80 H80        31.5722   -2.8990   -0.4625 H         1 UNK         0.0731 
     81 H81        30.8712   -3.7725   -3.8537 H         1 UNK         0.1312 
     82 H82        30.1680    0.2436   -5.1574 H         1 UNK         0.1406 
     83 H83        30.2817   -0.6560   -0.9647 H         1 UNK         0.1631 
     84 H84        30.0553    2.0594   -3.5397 H         1 UNK         0.0717 
     85 H85        30.5752    1.7378   -1.9079 H         1 UNK         0.0717 
     86 H86        26.2775    2.5799   -3.1414 H         1 UNK         0.0934 
     87 H87        27.7574    3.3466   -3.6542 H         1 UNK         0.0934 
     88 H88        28.3134    1.3972   -5.0816 H         1 UNK         0.0739 
     89 H89        26.2923   -0.0021   -3.6678 H         1 UNK         0.3093 
     90 H90        25.5387   -2.4304   -6.1397 H         1 UNK         0.0818 
     91 H91        27.5039   -2.8288   -3.8342 H         1 UNK         0.0819 
     92 H92        26.4705   -4.1082   -4.4869 H         1 UNK         0.0819 
     93 H93        27.7181   -3.3823   -5.4874 H         1 UNK         0.0819 
     94 H94        24.9455   -2.5771   -3.4144 H         1 UNK         0.3041 
     95 H95        22.7321    0.0543   -2.9091 H         1 UNK         0.0784 
     96 H96        21.1568   -1.3093   -4.3018 H         1 UNK         0.0793 
     97 H97        21.7447   -2.7816   -3.5408 H         1 UNK         0.0793 
     98 H98        20.8836   -1.5710   -2.5881 H         1 UNK         0.0793 
     99 H99        22.9934   -2.3329   -1.4316 H         1 UNK         0.3024 
    100 H100       25.5041   -1.1775    0.6977 H         1 UNK         0.1171 
    101 H101       24.1084   -2.8398    1.8146 H         1 UNK         0.0786 
    102 H102       23.0498   -1.7054    1.0007 H         1 UNK         0.0786 
    103 H103       23.3252   -3.3051    0.3126 H         1 UNK         0.0786 
    104 H104       26.7775   -2.9938    0.4695 H         1 UNK         0.2977 
    105 H105       24.9215    1.1537   -5.8405 H         1 UNK         0.3127 
    106 H106       24.7000    3.5244   -7.4423 H         1 UNK         0.0770 
    107 H107       23.2109    0.8516   -7.6438 H         1 UNK         0.0814 
    108 H108       22.7162    2.3674   -8.3831 H         1 UNK         0.0814 
    109 H109       22.7291    2.2140   -6.6332 H         1 UNK         0.0814 
    110 H110       26.4149    0.5072   -7.9755 H         1 UNK         0.2983 
    111 H111       26.5520    0.7916  -10.8886 H         1 UNK         0.0947 
    112 H112       27.9572   -1.1869  -10.7732 H         1 UNK         0.0806 
    113 H113       26.5937   -1.4512   -9.7031 H         1 UNK         0.0806 
    114 H114       28.1693   -1.0292   -9.0341 H         1 UNK         0.0806 
    115 H115       28.0568    2.3063   -8.2561 H         1 UNK         0.3000 
    116 H116       29.8128    3.6284   -7.9182 H         1 UNK         0.0850 
    117 H117       29.9371    5.4566   -9.6567 H         1 UNK         0.0810 
    118 H118       28.2948    5.0352   -9.2143 H         1 UNK         0.0810 
    119 H119       28.9529    4.4711  -10.7415 H         1 UNK         0.0810 
    120 H120       30.8132    3.8665  -11.2036 H         1 UNK         0.3040 
    121 H121       33.5368    3.4314  -10.7382 H         1 UNK         0.0766 
    122 H122       33.6973    3.5414  -13.2370 H         1 UNK         0.0812 
    123 H123       32.6422    4.7940  -12.6087 H         1 UNK         0.0812 
    124 H124       31.9539    3.3554  -13.3649 H         1 UNK         0.0812 
    125 H125       31.1244    0.9882  -11.1729 H         1 UNK         0.3205 
    126 H126       32.7398   -1.1589  -12.1443 H         1 UNK         0.0754 
    127 H127       30.3468   -1.2216  -10.2329 H         1 UNK         0.0769 
    128 H128       30.9716   -2.5886  -11.1437 H         1 UNK         0.0769 
    129 H129       30.2380   -1.2369  -11.9952 H         1 UNK         0.0769 
    130 H130       32.4934    0.3592   -8.9453 H         1 UNK         0.2981 
    131 H131       34.6281   -1.4635   -7.9275 H         1 UNK         0.0541 
    132 H132       33.4953    1.9599   -8.2368 H         1 UNK         0.3459 
    133 H133       35.0329    2.5943   -7.6924 H         1 UNK         0.3459 
    134 H134       32.3606   -0.2248   -6.3080 H         1 UNK         0.0612 
    135 H135       33.7499   -1.0143   -5.6043 H         1 UNK         0.0612 
    136 H136       29.9992   -3.1551   -6.2489 H         1 UNK         0.0624 
    137 H137       30.1892   -1.5035   -6.7800 H         1 UNK         0.0624 
@<TRIPOS>BOND
     1    1    2 1    
     2    1   72 1    
     3    1   73 1    
     4    1   74 1    
     5    2    3 2    
     6    2    4 am   BACKBONE|DICT|INTERRES
     7    4    5 1    
     8    4   75 1    
     9    5    6 1    
    10    5   35 1    
    11    5   76 1    
    12    6    7 1    
    13    6   77 1    
    14    6   78 1    
    15    7    8 1    
    16    8    9 1    
    17    8   79 1    
    18    8   80 1    
    19    9   10 ar   
    20    9   14 ar   
    21   10   11 ar   
    22   10   81 1    
    23   11   12 ar   
    24   11   71 1    
    25   12   13 ar   
    26   12   82 1    
    27   13   14 ar   
    28   13   15 1    
    29   14   83 1    
    30   15   16 1    
    31   15   84 1    
    32   15   85 1    
    33   16   17 1    
    34   17   18 1    
    35   17   86 1    
    36   17   87 1    
    37   18   19 1    
    38   18   37 1    
    39   18   88 1    
    40   19   20 am   BACKBONE|DICT|INTERRES
    41   19   89 1    
    42   20   21 2    
    43   20   22 1    
    44   22   23 1    
    45   22   24 1    
    46   22   90 1    
    47   23   91 1    
    48   23   92 1    
    49   23   93 1    
    50   24   25 am   BACKBONE|DICT|INTERRES
    51   24   94 1    
    52   25   26 2    
    53   25   27 1    
    54   27   28 1    
    55   27   29 1    
    56   27   95 1    
    57   28   96 1    
    58   28   97 1    
    59   28   98 1    
    60   29   30 am   BACKBONE|DICT|INTERRES
    61   29   99 1    
    62   30   31 2    
    63   30   32 1    
    64   32   33 1    
    65   32   34 1    
    66   32  100 1    
    67   33  101 1    
    68   33  102 1    
    69   33  103 1    
    70   34   35 am   BACKBONE|DICT|INTERRES
    71   34  104 1    
    72   35   36 2    
    73   37   38 2    
    74   37   39 am   BACKBONE|DICT|INTERRES
    75   39   40 1    
    76   39  105 1    
    77   40   41 1    
    78   40   42 1    
    79   40  106 1    
    80   41  107 1    
    81   41  108 1    
    82   41  109 1    
    83   42   43 2    
    84   42   44 am   BACKBONE|DICT|INTERRES
    85   44   45 1    
    86   44  110 1    
    87   45   46 1    
    88   45   47 1    
    89   45  111 1    
    90   46  112 1    
    91   46  113 1    
    92   46  114 1    
    93   47   48 2    
    94   47   49 am   BACKBONE|DICT|INTERRES
    95   49   50 1    
    96   49  115 1    
    97   50   51 1    
    98   50   52 1    
    99   50  116 1    
   100   51  117 1    
   101   51  118 1    
   102   51  119 1    
   103   52   53 2    
   104   52   54 am   BACKBONE|DICT|INTERRES
   105   54   55 1    
   106   54  120 1    
   107   55   56 1    
   108   55   57 1    
   109   55  121 1    
   110   56  122 1    
   111   56  123 1    
   112   56  124 1    
   113   57   58 2    
   114   57   59 am   BACKBONE|DICT|INTERRES
   115   59   60 1    
   116   59  125 1    
   117   60   61 1    
   118   60   62 1    
   119   60  126 1    
   120   61  127 1    
   121   61  128 1    
   122   61  129 1    
   123   62   63 2    
   124   62   64 am   BACKBONE|DICT|INTERRES
   125   64   65 1    
   126   64  130 1    
   127   65   66 1    
   128   65   69 1    
   129   65  131 1    
   130   66   67 am   BACKBONE|DICT|INTERRES
   131   66   68 2    
   132   67  132 1    
   133   67  133 1    
   134   69   70 1    
   135   69  134 1    
   136   69  135 1    
   137   70   71 1    
   138   71  136 1    
   139   71  137 1    
@<TRIPOS>SUBSTRUCTURE
     1 UNK         1 GROUP             0       ****    0 ROOT    
