@<TRIPOS>MOLECULE
3R137
137   139    1
SMALL
USER_CHARGES


@<TRIPOS>ATOM
      1 CA         28.7808   -3.2231   -8.3957 C.3       0 UNK        -0.2020 
      2 C          28.3954   -4.2597   -7.3521 C.2       0 UNK         0.4855 
      3 O          27.5394   -5.1054   -7.6115 O.2       0 UNK        -0.5197 
      4 N          29.0183   -4.1948   -6.1728 N.am      1 UNK        -0.4892 
      5 CA         28.6824   -4.9952   -4.9917 C.3       1 UNK         0.0835 
      6 C6         29.9445   -5.2846   -4.1352 C.3       12 UNK        -0.0855 
      7 S7         30.9194   -3.7935   -3.7247 S.3       12 UNK        -0.2931 
      8 C8         30.4483   -3.4799   -1.9953 C.3       12 UNK         0.0378 
      9 C9         30.2843   -1.9882   -1.7536 C.ar      12 UNK        -0.0802 
     10 C10        31.4082   -1.1616   -1.6711 C.ar      12 UNK        -0.0944 
     11 C11        31.2638    0.2192   -1.5066 C.ar      12 UNK        -0.0787 
     12 C12        29.9831    0.7662   -1.3848 C.ar      12 UNK        -0.0862 
     13 C13        28.8522   -0.0546   -1.4326 C.ar      12 UNK        -0.0733 
     14 C14        29.0094   -1.4300   -1.6271 C.ar      12 UNK        -0.0832 
     15 C15        27.4638    0.5436   -1.2502 C.3       12 UNK         0.0240 
     16 S16        26.3767    0.2486   -2.6793 S.3       12 UNK        -0.2522 
     17 C17        27.2573    1.1209   -4.0224 C.3       12 UNK        -0.0967 
     18 CA         27.7964    0.1495   -5.1189 C.3       5 UNK         0.0660 
     19 N          26.7317   -0.7116   -5.6451 N.am      5 UNK        -0.4015 
     20 C          25.6693   -0.3250   -6.3660 C.2       4 UNK         0.4946 
     21 O          25.5204    0.8102   -6.8240 O.2       4 UNK        -0.5353 
     22 CA         24.5534   -1.3687   -6.5554 C.3       4 UNK         0.0277 
     23 CB         24.9945   -2.5443   -7.4403 C.3       4 UNK        -0.1981 
     24 N          24.0956   -1.9043   -5.2753 N.am      4 UNK        -0.4209 
     25 C          23.3758   -1.2483   -4.3587 C.2       3 UNK         0.4942 
     26 O          22.9289   -0.1132   -4.5264 O.2       3 UNK        -0.5208 
     27 CA         23.1004   -1.9679   -3.0219 C.3       3 UNK         0.0250 
     28 CB         21.7717   -2.7477   -3.0756 C.3       3 UNK        -0.1990 
     29 N          24.2027   -2.8104   -2.5253 N.am      3 UNK        -0.4232 
     30 C          24.7048   -3.9373   -3.0510 C.2       2 UNK         0.4993 
     31 O          24.2685   -4.4831   -4.0672 O.2       2 UNK        -0.5286 
     32 CA         25.9190   -4.5467   -2.3281 C.3       2 UNK         0.0209 
     33 CB         25.4748   -5.6922   -1.4045 C.3       2 UNK        -0.1931 
     34 N          26.9451   -5.0432   -3.2535 N.am      2 UNK        -0.4546 
     35 C          27.5777   -4.2966   -4.1706 C.2       1 UNK         0.5154 
     36 O          27.3408   -3.0990   -4.3488 O.2       1 UNK        -0.5181 
     37 C          28.5978    0.8758   -6.2296 C.2       5 UNK         0.5014 
     38 O          28.5519    0.4970   -7.4060 O.2       5 UNK        -0.5248 
     39 N          29.3127    1.9395   -5.8351 N.am      6 UNK        -0.4434 
     40 CA         30.0148    2.8671   -6.7247 C.3       6 UNK         0.0363 
     41 CB         30.9678    3.7395   -5.8927 C.3       6 UNK        -0.1936 
     42 C          29.0786    3.7372   -7.5851 C.2       6 UNK         0.5081 
     43 O          29.5474    4.3551   -8.5401 O.2       6 UNK        -0.5248 
     44 N          27.7807    3.7725   -7.2488 N.am      7 UNK        -0.4718 
     45 CA         26.7353    4.3984   -8.0581 C.3       7 UNK         0.0273 
     46 CB         25.4398    4.5073   -7.2375 C.3       7 UNK        -0.1935 
     47 C          26.4967    3.6318   -9.3696 C.2       7 UNK         0.5018 
     48 O          26.3898    4.2610  -10.4230 O.2       7 UNK        -0.5186 
     49 N          26.4372    2.2947   -9.2857 N.am      8 UNK        -0.4240 
     50 CA         26.3076    1.4122  -10.4440 C.3       8 UNK         0.0235 
     51 CB         25.7234    0.0632  -10.0076 C.3       8 UNK        -0.2000 
     52 C          27.6452    1.1913  -11.1625 C.2       8 UNK         0.4941 
     53 O          27.6722    1.2444  -12.3932 O.2       8 UNK        -0.5273 
     54 N          28.7158    0.9202  -10.4018 N.am      9 UNK        -0.4262 
     55 CA         30.0252    0.5742  -10.9526 C.3       9 UNK         0.0264 
     56 CB         30.0943   -0.9349  -11.2669 C.3       9 UNK        -0.1955 
     57 C          31.1510    1.0558  -10.0327 C.2       9 UNK         0.5031 
     58 O          31.6667    2.1541  -10.2426 O.2       9 UNK        -0.5390 
     59 N          31.5404    0.2275   -9.0575 N.am      10 UNK        -0.4204 
     60 CA         32.6794    0.4482   -8.1709 C.3       10 UNK         0.0237 
     61 CB         33.9850    0.0746   -8.9022 C.3       10 UNK        -0.1985 
     62 C          32.5083   -0.3881   -6.8983 C.2       10 UNK         0.4970 
     63 O          31.6839   -1.3052   -6.8692 O.2       10 UNK        -0.4914 
     64 N          33.3320   -0.0731   -5.8936 N.am      11 UNK        -0.4285 
     65 CA         33.4614   -0.8119   -4.6271 C.3       11 UNK         0.1007 
     66 C          34.2200   -2.1708   -4.7419 C.2       11 UNK         0.5703 
     67 N          34.7216   -2.5676   -5.9060 N.am      11 UNK        -0.7361 
     68 O          34.3691   -2.8777   -3.7483 O.2       11 UNK        -0.4986 
     69 C69        34.0995    0.0814   -3.5286 C.3       12 UNK        -0.0947 
     70 S70        33.0916    1.5460   -3.1161 S.3       12 UNK        -0.2240 
     71 C71        32.4864    1.1232   -1.4507 C.3       12 UNK         0.0194 
     72 H72        29.3803   -2.4212   -7.9645 H         1 UNK         0.0906 
     73 H73        29.3536   -3.6923   -9.1949 H         1 UNK         0.0906 
     74 H74        27.8885   -2.7739   -8.8307 H         1 UNK         0.0906 
     75 H75        29.6970   -3.4644   -6.0003 H         1 UNK         0.3140 
     76 H76        28.2759   -5.9543   -5.3210 H         1 UNK         0.1085 
     77 H77        29.6945   -5.8358   -3.2269 H         1 UNK         0.0836 
     78 H78        30.6026   -5.9499   -4.6963 H         1 UNK         0.0836 
     79 H79        29.5231   -4.0035   -1.7506 H         1 UNK         0.0731 
     80 H80        31.2160   -3.8834   -1.3336 H         1 UNK         0.0731 
     81 H81        32.3938   -1.5960   -1.7644 H         1 UNK         0.1312 
     82 H82        29.8688    1.8324   -1.2434 H         1 UNK         0.1406 
     83 H83        28.1346   -2.0617   -1.6909 H         1 UNK         0.1631 
     84 H84        27.5193    1.6173   -1.0641 H         1 UNK         0.0717 
     85 H85        27.0043    0.1036   -0.3643 H         1 UNK         0.0717 
     86 H86        26.5653    1.8439   -4.4584 H         1 UNK         0.0934 
     87 H87        28.0596    1.7051   -3.5716 H         1 UNK         0.0934 
     88 H88        28.5092   -0.5261   -4.6427 H         1 UNK         0.0739 
     89 H89        26.7734   -1.6675   -5.2959 H         1 UNK         0.3093 
     90 H90        23.7114   -0.8714   -7.0415 H         1 UNK         0.0818 
     91 H91        24.1618   -3.2195   -7.6381 H         1 UNK         0.0819 
     92 H92        25.3686   -2.2117   -8.4057 H         1 UNK         0.0819 
     93 H93        25.7808   -3.1270   -6.9629 H         1 UNK         0.0819 
     94 H94        24.3717   -2.8548   -5.0437 H         1 UNK         0.3041 
     95 H95        22.9838   -1.1807   -2.2750 H         1 UNK         0.0784 
     96 H96        20.9443   -2.0859   -3.3349 H         1 UNK         0.0793 
     97 H97        21.7933   -3.5430   -3.8213 H         1 UNK         0.0793 
     98 H98        21.5365   -3.1978   -2.1112 H         1 UNK         0.0793 
     99 H99        24.6640   -2.4369   -1.7071 H         1 UNK         0.3024 
    100 H100       26.3839   -3.7708   -1.7168 H         1 UNK         0.1171 
    101 H101       24.7292   -5.3491   -0.6857 H         1 UNK         0.0786 
    102 H102       26.3129   -6.0916   -0.8329 H         1 UNK         0.0786 
    103 H103       25.0291   -6.5133   -1.9679 H         1 UNK         0.0786 
    104 H104       27.1706   -6.0248   -3.1836 H         1 UNK         0.2977 
    105 H105       29.3348    2.1699   -4.8526 H         1 UNK         0.3127 
    106 H106       30.6108    2.2775   -7.4171 H         1 UNK         0.0770 
    107 H107       30.4294    4.3465   -5.1640 H         1 UNK         0.0814 
    108 H108       31.5310    4.4210   -6.5318 H         1 UNK         0.0814 
    109 H109       31.6948    3.1309   -5.3551 H         1 UNK         0.0814 
    110 H110       27.4775    3.2376   -6.4492 H         1 UNK         0.2983 
    111 H111       27.0617    5.4083   -8.3167 H         1 UNK         0.0947 
    112 H112       24.6495    4.9822   -7.8205 H         1 UNK         0.0806 
    113 H113       25.5871    5.1107   -6.3417 H         1 UNK         0.0806 
    114 H114       25.0709    3.5290   -6.9263 H         1 UNK         0.0806 
    115 H115       26.4788    1.8508   -8.3732 H         1 UNK         0.3000 
    116 H116       25.6116    1.8651  -11.1539 H         1 UNK         0.0850 
    117 H117       25.5705   -0.5946  -10.8642 H         1 UNK         0.0810 
    118 H118       26.3991   -0.4452   -9.3199 H         1 UNK         0.0810 
    119 H119       24.7598    0.1861   -9.5129 H         1 UNK         0.0810 
    120 H120       28.6234    0.8983   -9.3886 H         1 UNK         0.3040 
    121 H121       30.1691    1.1100  -11.8938 H         1 UNK         0.0766 
    122 H122       29.8392   -1.5449  -10.4023 H         1 UNK         0.0812 
    123 H123       31.0937   -1.2238  -11.5953 H         1 UNK         0.0812 
    124 H124       29.4052   -1.1993  -12.0692 H         1 UNK         0.0812 
    125 H125       31.0264   -0.6250   -8.8729 H         1 UNK         0.3205 
    126 H126       32.7188    1.5006   -7.8835 H         1 UNK         0.0754 
    127 H127       34.8582    0.2313   -8.2678 H         1 UNK         0.0769 
    128 H128       34.1293    0.6846   -9.7942 H         1 UNK         0.0769 
    129 H129       33.9867   -0.9713   -9.2121 H         1 UNK         0.0769 
    130 H130       33.9777    0.6930   -6.0129 H         1 UNK         0.2981 
    131 H131       32.4525   -1.0713   -4.3029 H         1 UNK         0.0541 
    132 H132       34.6075   -2.0065   -6.7331 H         1 UNK         0.3459 
    133 H133       35.2093   -3.4481   -5.9547 H         1 UNK         0.3459 
    134 H134       35.0815    0.4300   -3.8529 H         1 UNK         0.0612 
    135 H135       34.2807   -0.4875   -2.6159 H         1 UNK         0.0612 
    136 H136       33.2793    0.6559   -0.8651 H         1 UNK         0.0624 
    137 H137       32.2394    2.0502   -0.9309 H         1 UNK         0.0624 
@<TRIPOS>BOND
     1    1    2 1    
     2    1   72 1    
     3    1   73 1    
     4    1   74 1    
     5    2    3 2    
     6    2    4 am   BACKBONE|DICT|INTERRES
     7    4    5 1    
     8    4   75 1    
     9    5    6 1    
    10    5   35 1    
    11    5   76 1    
    12    6    7 1    
    13    6   77 1    
    14    6   78 1    
    15    7    8 1    
    16    8    9 1    
    17    8   79 1    
    18    8   80 1    
    19    9   10 ar   
    20    9   14 ar   
    21   10   11 ar   
    22   10   81 1    
    23   11   12 ar   
    24   11   71 1    
    25   12   13 ar   
    26   12   82 1    
    27   13   14 ar   
    28   13   15 1    
    29   14   83 1    
    30   15   16 1    
    31   15   84 1    
    32   15   85 1    
    33   16   17 1    
    34   17   18 1    
    35   17   86 1    
    36   17   87 1    
    37   18   19 1    
    38   18   37 1    
    39   18   88 1    
    40   19   20 am   BACKBONE|DICT|INTERRES
    41   19   89 1    
    42   20   21 2    
    43   20   22 1    
    44   22   23 1    
    45   22   24 1    
    46   22   90 1    
    47   23   91 1    
    48   23   92 1    
    49   23   93 1    
    50   24   25 am   BACKBONE|DICT|INTERRES
    51   24   94 1    
    52   25   26 2    
    53   25   27 1    
    54   27   28 1    
    55   27   29 1    
    56   27   95 1    
    57   28   96 1    
    58   28   97 1    
    59   28   98 1    
    60   29   30 am   BACKBONE|DICT|INTERRES
    61   29   99 1    
    62   30   31 2    
    63   30   32 1    
    64   32   33 1    
    65   32   34 1    
    66   32  100 1    
    67   33  101 1    
    68   33  102 1    
    69   33  103 1    
    70   34   35 am   BACKBONE|DICT|INTERRES
    71   34  104 1    
    72   35   36 2    
    73   37   38 2    
    74   37   39 am   BACKBONE|DICT|INTERRES
    75   39   40 1    
    76   39  105 1    
    77   40   41 1    
    78   40   42 1    
    79   40  106 1    
    80   41  107 1    
    81   41  108 1    
    82   41  109 1    
    83   42   43 2    
    84   42   44 am   BACKBONE|DICT|INTERRES
    85   44   45 1    
    86   44  110 1    
    87   45   46 1    
    88   45   47 1    
    89   45  111 1    
    90   46  112 1    
    91   46  113 1    
    92   46  114 1    
    93   47   48 2    
    94   47   49 am   BACKBONE|DICT|INTERRES
    95   49   50 1    
    96   49  115 1    
    97   50   51 1    
    98   50   52 1    
    99   50  116 1    
   100   51  117 1    
   101   51  118 1    
   102   51  119 1    
   103   52   53 2    
   104   52   54 am   BACKBONE|DICT|INTERRES
   105   54   55 1    
   106   54  120 1    
   107   55   56 1    
   108   55   57 1    
   109   55  121 1    
   110   56  122 1    
   111   56  123 1    
   112   56  124 1    
   113   57   58 2    
   114   57   59 am   BACKBONE|DICT|INTERRES
   115   59   60 1    
   116   59  125 1    
   117   60   61 1    
   118   60   62 1    
   119   60  126 1    
   120   61  127 1    
   121   61  128 1    
   122   61  129 1    
   123   62   63 2    
   124   62   64 am   BACKBONE|DICT|INTERRES
   125   64   65 1    
   126   64  130 1    
   127   65   66 1    
   128   65   69 1    
   129   65  131 1    
   130   66   67 am   BACKBONE|DICT|INTERRES
   131   66   68 2    
   132   67  132 1    
   133   67  133 1    
   134   69   70 1    
   135   69  134 1    
   136   69  135 1    
   137   70   71 1    
   138   71  136 1    
   139   71  137 1    
@<TRIPOS>SUBSTRUCTURE
     1 UNK         1 GROUP             0       ****    0 ROOT    
