@<TRIPOS>MOLECULE
3R137
137   139    1
SMALL
USER_CHARGES


@<TRIPOS>ATOM
      1 CA         23.9373   -2.8619    0.2234 C.3       0 UNK        -0.2020 
      2 C          25.3140   -2.3675   -0.1909 C.2       0 UNK         0.4855 
      3 O          25.6102   -1.1825   -0.0339 O.2       0 UNK        -0.5197 
      4 N          26.1611   -3.2579   -0.7264 N.am      1 UNK        -0.4892 
      5 CA         27.5191   -2.9369   -1.1797 C.3       1 UNK         0.0835 
      6 C6         28.3326   -4.2075   -1.5252 C.3       12 UNK        -0.0855 
      7 S7         30.1241   -3.9373   -1.2992 S.3       12 UNK        -0.2931 
      8 C8         30.8448   -5.1276   -2.4739 C.3       12 UNK         0.0378 
      9 C9         30.6991   -4.6614   -3.9146 C.ar      12 UNK        -0.0802 
     10 C10        31.5621   -3.6886   -4.4298 C.ar      12 UNK        -0.0944 
     11 C11        31.4289   -3.2461   -5.7499 C.ar      12 UNK        -0.0787 
     12 C12        30.4202   -3.7869   -6.5537 C.ar      12 UNK        -0.0862 
     13 C13        29.5539   -4.7621   -6.0502 C.ar      12 UNK        -0.0733 
     14 C14        29.7040   -5.2023   -4.7333 C.ar      12 UNK        -0.0832 
     15 C15        28.4397   -5.3257   -6.9195 C.3       12 UNK         0.0240 
     16 S16        26.8278   -4.5940   -6.4929 S.3       12 UNK        -0.2522 
     17 C17        27.1523   -2.8376   -6.8568 C.3       12 UNK        -0.0967 
     18 CA         25.8606   -1.9885   -6.9284 C.3       5 UNK         0.0660 
     19 N          25.1327   -2.0080   -5.6584 N.am      5 UNK        -0.4015 
     20 C          23.8086   -1.8672   -5.5259 C.2       4 UNK         0.4946 
     21 O          23.0427   -1.6851   -6.4735 O.2       4 UNK        -0.5353 
     22 CA         23.2617   -1.8704   -4.0944 C.3       4 UNK         0.0277 
     23 CB         23.3991   -3.2594   -3.4479 C.3       4 UNK        -0.1981 
     24 N          23.9499   -0.8615   -3.2888 N.am      4 UNK        -0.4209 
     25 C          23.6367    0.4430   -3.2897 C.2       3 UNK         0.4942 
     26 O          22.6740    0.9151   -3.8949 O.2       3 UNK        -0.5208 
     27 CA         24.5435    1.3887   -2.4842 C.3       3 UNK         0.0250 
     28 CB         23.9584    1.6379   -1.0847 C.3       3 UNK        -0.1990 
     29 N          25.9152    0.8870   -2.3664 N.am      3 UNK        -0.4232 
     30 C          26.8282    0.9815   -3.3463 C.2       2 UNK         0.4993 
     31 O          26.6221    1.5567   -4.4136 O.2       2 UNK        -0.5286 
     32 CA         28.2038    0.3311   -3.1092 C.3       2 UNK         0.0209 
     33 CB         29.1947    1.3836   -2.5849 C.3       2 UNK        -0.1931 
     34 N          28.1849   -0.8030   -2.1812 N.am      2 UNK        -0.4546 
     35 C          27.4806   -1.9298   -2.3476 C.2       1 UNK         0.5154 
     36 O          26.7695   -2.1591   -3.3302 O.2       1 UNK        -0.5181 
     37 C          26.1512   -0.5342   -7.3527 C.2       5 UNK         0.5014 
     38 O          27.3056   -0.1899   -7.6099 O.2       5 UNK        -0.5248 
     39 N          25.1047    0.3001   -7.4250 N.am      6 UNK        -0.4434 
     40 CA         25.1790    1.7463   -7.6697 C.3       6 UNK         0.0363 
     41 CB         23.7693    2.3474   -7.5575 C.3       6 UNK        -0.1936 
     42 C          25.8368    2.1485   -9.0031 C.2       6 UNK         0.5081 
     43 O          26.3869    3.2457   -9.0956 O.2       6 UNK        -0.5248 
     44 N          25.7884    1.2565  -10.0021 N.am      7 UNK        -0.4718 
     45 CA         26.4655    1.4172  -11.2915 C.3       7 UNK         0.0273 
     46 CB         25.8724    0.4186  -12.2987 C.3       7 UNK        -0.1935 
     47 C          27.9946    1.2466  -11.2039 C.2       7 UNK         0.5018 
     48 O          28.7044    1.8089  -12.0388 O.2       7 UNK        -0.5186 
     49 N          28.4713    0.4755  -10.2166 N.am      8 UNK        -0.4240 
     50 CA         29.8922    0.2381   -9.9544 C.3       8 UNK         0.0235 
     51 CB         30.1001   -1.2347   -9.5712 C.3       8 UNK        -0.2000 
     52 C          30.4120    1.1539   -8.8383 C.2       8 UNK         0.4941 
     53 O          31.5449    1.6292   -8.9323 O.2       8 UNK        -0.5273 
     54 N          29.5805    1.3826   -7.8098 N.am      9 UNK        -0.4262 
     55 CA         29.8199    2.2121   -6.6278 C.3       9 UNK         0.0264 
     56 CB         29.8058    3.7098   -7.0065 C.3       9 UNK        -0.1955 
     57 C          31.0819    1.7637   -5.8704 C.2       9 UNK         0.5031 
     58 O          31.0356    0.7515   -5.1736 O.2       9 UNK        -0.5390 
     59 N          32.1837    2.5057   -6.0300 N.am      10 UNK        -0.4204 
     60 CA         33.4871    2.2048   -5.4373 C.3       10 UNK         0.0237 
     61 CB         34.3137    3.5015   -5.3870 C.3       10 UNK        -0.1985 
     62 C          34.2703    1.0941   -6.1667 C.2       10 UNK         0.4970 
     63 O          35.2883    0.6581   -5.6270 O.2       10 UNK        -0.4914 
     64 N          33.8186    0.6764   -7.3613 N.am      11 UNK        -0.4285 
     65 CA         34.5157   -0.2302   -8.2934 C.3       11 UNK         0.1007 
     66 C          35.7986    0.4074   -8.9139 C.2       11 UNK         0.5703 
     67 N          36.4937   -0.3088   -9.7884 N.am      11 UNK        -0.7361 
     68 O          36.1561    1.5562   -8.6560 O.2       11 UNK        -0.4986 
     69 C69        34.7595   -1.6587   -7.7055 C.3       12 UNK        -0.0947 
     70 S70        33.2879   -2.7314   -7.7480 S.3       12 UNK        -0.2240 
     71 C71        32.3546   -2.1652   -6.2936 C.3       12 UNK         0.0194 
     72 H72        23.8284   -2.7984    1.3057 H         1 UNK         0.0906 
     73 H73        23.7671   -3.8959   -0.0760 H         1 UNK         0.0906 
     74 H74        23.1642   -2.2433   -0.2317 H         1 UNK         0.0906 
     75 H75        25.8634   -4.2138   -0.8602 H         1 UNK         0.3140 
     76 H76        28.0013   -2.4523   -0.3271 H         1 UNK         0.1085 
     77 H77        28.1109   -4.5536   -2.5357 H         1 UNK         0.0836 
     78 H78        28.0546   -5.0275   -0.8611 H         1 UNK         0.0836 
     79 H79        31.9034   -5.2535   -2.2414 H         1 UNK         0.0731 
     80 H80        30.3845   -6.1067   -2.3310 H         1 UNK         0.0731 
     81 H81        32.3300   -3.2680   -3.7948 H         1 UNK         0.1312 
     82 H82        30.3096   -3.4447   -7.5724 H         1 UNK         0.1406 
     83 H83        29.0305   -5.9534   -4.3431 H         1 UNK         0.1631 
     84 H84        28.3846   -6.4075   -6.7897 H         1 UNK         0.0717 
     85 H85        28.6480   -5.1546   -7.9769 H         1 UNK         0.0717 
     86 H86        27.8276   -2.4416   -6.0948 H         1 UNK         0.0934 
     87 H87        27.6892   -2.7880   -7.8056 H         1 UNK         0.0934 
     88 H88        25.2272   -2.4205   -7.7062 H         1 UNK         0.0739 
     89 H89        25.7058   -2.1192   -4.8233 H         1 UNK         0.3093 
     90 H90        22.1973   -1.6290   -4.1415 H         1 UNK         0.0818 
     91 H91        22.9406   -4.0259   -4.0741 H         1 UNK         0.0819 
     92 H92        24.4405   -3.5451   -3.2971 H         1 UNK         0.0819 
     93 H93        22.8958   -3.2947   -2.4829 H         1 UNK         0.0819 
     94 H94        24.7945   -1.1536   -2.8155 H         1 UNK         0.3041 
     95 H95        24.5685    2.3460   -3.0099 H         1 UNK         0.0784 
     96 H96        22.9682    2.0902   -1.1542 H         1 UNK         0.0793 
     97 H97        23.8513    0.7138   -0.5165 H         1 UNK         0.0793 
     98 H98        24.5845    2.3178   -0.5067 H         1 UNK         0.0793 
     99 H99        26.1467    0.3831   -1.5175 H         1 UNK         0.3024 
    100 H100       28.5601   -0.0359   -4.0751 H         1 UNK         0.1171 
    101 H101       28.9037    1.7623   -1.6043 H         1 UNK         0.0786 
    102 H102       30.2018    0.9738   -2.5039 H         1 UNK         0.0786 
    103 H103       29.2506    2.2381   -3.2607 H         1 UNK         0.0786 
    104 H104       28.7345   -0.6984   -1.3403 H         1 UNK         0.2977 
    105 H105       24.1906   -0.0827   -7.2074 H         1 UNK         0.3127 
    106 H106       25.7942    2.1745   -6.8761 H         1 UNK         0.0770 
    107 H107       23.7923    3.4282   -7.7044 H         1 UNK         0.0814 
    108 H108       23.0922    1.9301   -8.3037 H         1 UNK         0.0814 
    109 H109       23.3390    2.1655   -6.5720 H         1 UNK         0.0814 
    110 H110       25.2979    0.3882   -9.8437 H         1 UNK         0.2983 
    111 H111       26.2709    2.4281  -11.6571 H         1 UNK         0.0947 
    112 H112       26.0263   -0.6143  -11.9838 H         1 UNK         0.0806 
    113 H113       26.3365    0.5324  -13.2795 H         1 UNK         0.0806 
    114 H114       24.8015    0.5752  -12.4298 H         1 UNK         0.0806 
    115 H115       27.8203    0.1091   -9.5311 H         1 UNK         0.3000 
    116 H116       30.4780    0.4390  -10.8542 H         1 UNK         0.0850 
    117 H117       31.1584   -1.4487   -9.4210 H         1 UNK         0.0810 
    118 H118       29.7412   -1.9046  -10.3526 H         1 UNK         0.0810 
    119 H119       29.5803   -1.4850   -8.6467 H         1 UNK         0.0810 
    120 H120       28.7046    0.8604   -7.7869 H         1 UNK         0.3040 
    121 H121       28.9790    2.0352   -5.9551 H         1 UNK         0.0766 
    122 H122       29.9788    4.3394   -6.1326 H         1 UNK         0.0812 
    123 H123       28.8355    3.9928   -7.4157 H         1 UNK         0.0812 
    124 H124       30.5580    3.9601   -7.7552 H         1 UNK         0.0812 
    125 H125       32.1382    3.2959   -6.6572 H         1 UNK         0.3205 
    126 H126       33.3284    1.8642   -4.4117 H         1 UNK         0.0754 
    127 H127       35.2765    3.3338   -4.9021 H         1 UNK         0.0769 
    128 H128       33.8005    4.2791   -4.8208 H         1 UNK         0.0769 
    129 H129       34.5167    3.8890   -6.3864 H         1 UNK         0.0769 
    130 H130       32.9906    1.1205   -7.7479 H         1 UNK         0.2981 
    131 H131       33.8351   -0.3279   -9.1400 H         1 UNK         0.0541 
    132 H132       37.3145    0.0978  -10.2091 H         1 UNK         0.3459 
    133 H133       36.2105   -1.2422  -10.0425 H         1 UNK         0.3459 
    134 H134       35.1568   -1.6271   -6.6917 H         1 UNK         0.0612 
    135 H135       35.5128   -2.1981   -8.2803 H         1 UNK         0.0612 
    136 H136       31.7593   -1.3000   -6.5837 H         1 UNK         0.0624 
    137 H137       33.0461   -1.8269   -5.5206 H         1 UNK         0.0624 
@<TRIPOS>BOND
     1    1    2 1    
     2    1   72 1    
     3    1   73 1    
     4    1   74 1    
     5    2    3 2    
     6    2    4 am   BACKBONE|DICT|INTERRES
     7    4    5 1    
     8    4   75 1    
     9    5    6 1    
    10    5   35 1    
    11    5   76 1    
    12    6    7 1    
    13    6   77 1    
    14    6   78 1    
    15    7    8 1    
    16    8    9 1    
    17    8   79 1    
    18    8   80 1    
    19    9   10 ar   
    20    9   14 ar   
    21   10   11 ar   
    22   10   81 1    
    23   11   12 ar   
    24   11   71 1    
    25   12   13 ar   
    26   12   82 1    
    27   13   14 ar   
    28   13   15 1    
    29   14   83 1    
    30   15   16 1    
    31   15   84 1    
    32   15   85 1    
    33   16   17 1    
    34   17   18 1    
    35   17   86 1    
    36   17   87 1    
    37   18   19 1    
    38   18   37 1    
    39   18   88 1    
    40   19   20 am   BACKBONE|DICT|INTERRES
    41   19   89 1    
    42   20   21 2    
    43   20   22 1    
    44   22   23 1    
    45   22   24 1    
    46   22   90 1    
    47   23   91 1    
    48   23   92 1    
    49   23   93 1    
    50   24   25 am   BACKBONE|DICT|INTERRES
    51   24   94 1    
    52   25   26 2    
    53   25   27 1    
    54   27   28 1    
    55   27   29 1    
    56   27   95 1    
    57   28   96 1    
    58   28   97 1    
    59   28   98 1    
    60   29   30 am   BACKBONE|DICT|INTERRES
    61   29   99 1    
    62   30   31 2    
    63   30   32 1    
    64   32   33 1    
    65   32   34 1    
    66   32  100 1    
    67   33  101 1    
    68   33  102 1    
    69   33  103 1    
    70   34   35 am   BACKBONE|DICT|INTERRES
    71   34  104 1    
    72   35   36 2    
    73   37   38 2    
    74   37   39 am   BACKBONE|DICT|INTERRES
    75   39   40 1    
    76   39  105 1    
    77   40   41 1    
    78   40   42 1    
    79   40  106 1    
    80   41  107 1    
    81   41  108 1    
    82   41  109 1    
    83   42   43 2    
    84   42   44 am   BACKBONE|DICT|INTERRES
    85   44   45 1    
    86   44  110 1    
    87   45   46 1    
    88   45   47 1    
    89   45  111 1    
    90   46  112 1    
    91   46  113 1    
    92   46  114 1    
    93   47   48 2    
    94   47   49 am   BACKBONE|DICT|INTERRES
    95   49   50 1    
    96   49  115 1    
    97   50   51 1    
    98   50   52 1    
    99   50  116 1    
   100   51  117 1    
   101   51  118 1    
   102   51  119 1    
   103   52   53 2    
   104   52   54 am   BACKBONE|DICT|INTERRES
   105   54   55 1    
   106   54  120 1    
   107   55   56 1    
   108   55   57 1    
   109   55  121 1    
   110   56  122 1    
   111   56  123 1    
   112   56  124 1    
   113   57   58 2    
   114   57   59 am   BACKBONE|DICT|INTERRES
   115   59   60 1    
   116   59  125 1    
   117   60   61 1    
   118   60   62 1    
   119   60  126 1    
   120   61  127 1    
   121   61  128 1    
   122   61  129 1    
   123   62   63 2    
   124   62   64 am   BACKBONE|DICT|INTERRES
   125   64   65 1    
   126   64  130 1    
   127   65   66 1    
   128   65   69 1    
   129   65  131 1    
   130   66   67 am   BACKBONE|DICT|INTERRES
   131   66   68 2    
   132   67  132 1    
   133   67  133 1    
   134   69   70 1    
   135   69  134 1    
   136   69  135 1    
   137   70   71 1    
   138   71  136 1    
   139   71  137 1    
@<TRIPOS>SUBSTRUCTURE
     1 UNK         1 GROUP             0       ****    0 ROOT    
