@<TRIPOS>MOLECULE
3R137
137   139    1
SMALL
USER_CHARGES


@<TRIPOS>ATOM
      1 CA         30.1254    0.8891   -0.5526 C.3       0 UNK        -0.2020 
      2 C          29.2194   -0.3270   -0.4438 C.2       0 UNK         0.4855 
      3 O          28.6007   -0.5378    0.5999 O.2       0 UNK        -0.5197 
      4 N          29.1297   -1.1227   -1.5188 N.am      1 UNK        -0.4892 
      5 CA         28.3331   -2.3510   -1.6625 C.3       1 UNK         0.0835 
      6 C6         28.6917   -3.4343   -0.6085 C.3       12 UNK        -0.0855 
      7 S7         28.4473   -5.1331   -1.2236 S.3       12 UNK        -0.2931 
      8 C8         30.1081   -5.5370   -1.8617 C.3       12 UNK         0.0378 
      9 C9         30.3887   -4.8362   -3.1840 C.ar      12 UNK        -0.0802 
     10 C10        31.2534   -3.7381   -3.2463 C.ar      12 UNK        -0.0944 
     11 C11        31.5013   -3.0853   -4.4600 C.ar      12 UNK        -0.0787 
     12 C12        30.8651   -3.5549   -5.6199 C.ar      12 UNK        -0.0862 
     13 C13        29.9920   -4.6460   -5.5706 C.ar      12 UNK        -0.0733 
     14 C14        29.7707   -5.2901   -4.3511 C.ar      12 UNK        -0.0832 
     15 C15        29.2962   -5.1322   -6.8362 C.3       12 UNK         0.0240 
     16 S16        27.4804   -5.1293   -6.6541 S.3       12 UNK        -0.2522 
     17 C17        26.9261   -4.4540   -8.2613 C.3       12 UNK        -0.0967 
     18 CA         26.4540   -2.9802   -8.1820 C.3       5 UNK         0.0660 
     19 N          25.3993   -2.7939   -7.1742 N.am      5 UNK        -0.4015 
     20 C          24.7528   -1.6466   -6.9226 C.2       4 UNK         0.4946 
     21 O          24.9427   -0.6132   -7.5662 O.2       4 UNK        -0.5353 
     22 CA         23.7873   -1.6227   -5.7252 C.3       4 UNK         0.0277 
     23 CB         23.5283   -3.0055   -5.0904 C.3       4 UNK        -0.1981 
     24 N          24.3261   -0.7301   -4.6999 N.am      4 UNK        -0.4209 
     25 C          24.0807    0.5866   -4.6126 C.2       3 UNK         0.4942 
     26 O          23.3213    1.1920   -5.3711 O.2       3 UNK        -0.5208 
     27 CA         24.8053    1.3584   -3.4861 C.3       3 UNK         0.0250 
     28 CB         24.0655    2.6480   -3.0706 C.3       3 UNK        -0.1990 
     29 N          25.1119    0.5297   -2.3120 N.am      3 UNK        -0.4232 
     30 C          24.2454   -0.1501   -1.5431 C.2       2 UNK         0.4993 
     31 O          23.0212   -0.0621   -1.6498 O.2       2 UNK        -0.5286 
     32 CA         24.8437   -1.1100   -0.4923 C.3       2 UNK         0.0209 
     33 CB         24.0039   -2.3976   -0.3503 C.3       2 UNK        -0.1931 
     34 N          26.2588   -1.4566   -0.7030 N.am      2 UNK        -0.4546 
     35 C          26.8199   -2.0641   -1.7596 C.2       1 UNK         0.5154 
     36 O          26.2134   -2.3285   -2.8002 O.2       1 UNK        -0.5181 
     37 C          27.6451   -2.0137   -8.0012 C.2       5 UNK         0.5014 
     38 O          28.2738   -1.6337   -8.9882 O.2       5 UNK        -0.5248 
     39 N          27.8956   -1.5919   -6.7543 N.am      6 UNK        -0.4434 
     40 CA         28.8969   -0.6008   -6.3703 C.3       6 UNK         0.0363 
     41 CB         28.9313   -0.5037   -4.8421 C.3       6 UNK        -0.1936 
     42 C          28.6959    0.7900   -6.9904 C.2       6 UNK         0.5081 
     43 O          29.6822    1.5073   -7.1608 O.2       6 UNK        -0.5248 
     44 N          27.4499    1.1492   -7.3327 N.am      7 UNK        -0.4718 
     45 CA         27.1373    2.3959   -8.0347 C.3       7 UNK         0.0273 
     46 CB         25.6455    2.7248   -7.8695 C.3       7 UNK        -0.1935 
     47 C          27.5238    2.3317   -9.5220 C.2       7 UNK         0.5018 
     48 O          27.9570    3.3423  -10.0750 O.2       7 UNK        -0.5186 
     49 N          27.3855    1.1462  -10.1333 N.am      8 UNK        -0.4240 
     50 CA         27.7882    0.8736  -11.5147 C.3       8 UNK         0.0235 
     51 CB         27.0255   -0.3520  -12.0449 C.3       8 UNK        -0.2000 
     52 C          29.3066    0.6693  -11.6328 C.2       8 UNK         0.4941 
     53 O          29.9194    1.1980  -12.5605 O.2       8 UNK        -0.5273 
     54 N          29.8869   -0.0746  -10.6803 N.am      9 UNK        -0.4262 
     55 CA         31.3244   -0.3426  -10.5769 C.3       9 UNK         0.0264 
     56 CB         31.5395   -1.5385   -9.6355 C.3       9 UNK        -0.1955 
     57 C          32.1555    0.8699  -10.1130 C.2       9 UNK         0.5031 
     58 O          33.3752    0.8500  -10.2844 O.2       9 UNK        -0.5390 
     59 N          31.4908    1.8877   -9.5449 N.am      10 UNK        -0.4204 
     60 CA         32.0438    3.1316   -8.9985 C.3       10 UNK         0.0237 
     61 CB         32.7011    3.9854  -10.1046 C.3       10 UNK        -0.1985 
     62 C          32.9631    2.8781   -7.7890 C.2       10 UNK         0.4970 
     63 O          34.0855    3.3864   -7.7430 O.2       10 UNK        -0.4914 
     64 N          32.4528    2.0992   -6.8304 N.am      11 UNK        -0.4285 
     65 CA         33.1125    1.7543   -5.5614 C.3       11 UNK         0.1007 
     66 C          32.2146    1.9823   -4.3129 C.2       11 UNK         0.5703 
     67 N          31.0119    2.5310   -4.4476 N.am      11 UNK        -0.7361 
     68 O          32.6269    1.6860   -3.1946 O.2       11 UNK        -0.4986 
     69 C69        33.7780    0.3501   -5.6036 C.3       12 UNK        -0.0947 
     70 S70        32.6406   -1.0062   -6.0455 S.3       12 UNK        -0.2240 
     71 C71        32.4554   -1.8842   -4.4538 C.3       12 UNK         0.0194 
     72 H72        30.8992    0.8497    0.2136 H         1 UNK         0.0906 
     73 H73        30.6154    0.9472   -1.5238 H         1 UNK         0.0906 
     74 H74        29.5485    1.8020   -0.4077 H         1 UNK         0.0906 
     75 H75        29.6643   -0.8733   -2.3382 H         1 UNK         0.3140 
     76 H76        28.6116   -2.7511   -2.6368 H         1 UNK         0.1085 
     77 H77        29.7360   -3.3337   -0.3085 H         1 UNK         0.0836 
     78 H78        28.1176   -3.3047    0.3108 H         1 UNK         0.0836 
     79 H79        30.1735   -6.6161   -2.0087 H         1 UNK         0.0731 
     80 H80        30.8652   -5.2882   -1.1164 H         1 UNK         0.0731 
     81 H81        31.7325   -3.3852   -2.3430 H         1 UNK         0.1312 
     82 H82        31.0366   -3.0768   -6.5726 H         1 UNK         0.1406 
     83 H83        29.0967   -6.1352   -4.3061 H         1 UNK         0.1631 
     84 H84        29.5871   -4.5118   -7.6851 H         1 UNK         0.0717 
     85 H85        29.6299   -6.1448   -7.0664 H         1 UNK         0.0717 
     86 H86        27.7037   -4.5762   -9.0181 H         1 UNK         0.0934 
     87 H87        26.0981   -5.0753   -8.6063 H         1 UNK         0.0934 
     88 H88        26.0066   -2.7276   -9.1457 H         1 UNK         0.0739 
     89 H89        25.2050   -3.5956   -6.5916 H         1 UNK         0.3093 
     90 H90        22.8330   -1.2363   -6.0894 H         1 UNK         0.0818 
     91 H91        22.8021   -2.9274   -4.2809 H         1 UNK         0.0819 
     92 H92        23.1154   -3.7064   -5.8174 H         1 UNK         0.0819 
     93 H93        24.4331   -3.4464   -4.6692 H         1 UNK         0.0819 
     94 H94        24.9575   -1.1520   -4.0267 H         1 UNK         0.3041 
     95 H95        25.7676    1.6555   -3.9061 H         1 UNK         0.0784 
     96 H96        23.9654    3.3317   -3.9146 H         1 UNK         0.0793 
     97 H97        23.0608    2.4373   -2.7029 H         1 UNK         0.0793 
     98 H98        24.6049    3.1805   -2.2874 H         1 UNK         0.0793 
     99 H99        26.0933    0.3838   -2.1241 H         1 UNK         0.3024 
    100 H100       24.7974   -0.5753    0.4580 H         1 UNK         0.1171 
    101 H101       24.4206   -3.0618    0.4069 H         1 UNK         0.0786 
    102 H102       22.9803   -2.1707   -0.0494 H         1 UNK         0.0786 
    103 H103       23.9517   -2.9502   -1.2892 H         1 UNK         0.0786 
    104 H104       26.8972   -1.1921    0.0453 H         1 UNK         0.2977 
    105 H105       27.3387   -1.9830   -6.0090 H         1 UNK         0.3127 
    106 H106       29.8610   -0.9674   -6.7174 H         1 UNK         0.0770 
    107 H107       27.9873   -0.1405   -4.4339 H         1 UNK         0.0814 
    108 H108       29.7200    0.1697   -4.5110 H         1 UNK         0.0814 
    109 H109       29.1394   -1.4788   -4.4097 H         1 UNK         0.0814 
    110 H110       26.6838    0.4975   -7.1965 H         1 UNK         0.2983 
    111 H111       27.7129    3.2047   -7.5781 H         1 UNK         0.0947 
    112 H112       25.0087    1.9639   -8.3220 H         1 UNK         0.0806 
    113 H113       25.4019    3.6766   -8.3435 H         1 UNK         0.0806 
    114 H114       25.3705    2.8066   -6.8178 H         1 UNK         0.0806 
    115 H115       27.0575    0.3604   -9.5888 H         1 UNK         0.3000 
    116 H116       27.5172    1.7327  -12.1327 H         1 UNK         0.0850 
    117 H117       27.2914   -0.5552  -13.0831 H         1 UNK         0.0810 
    118 H118       25.9477   -0.1918  -12.0127 H         1 UNK         0.0810 
    119 H119       27.2475   -1.2521  -11.4707 H         1 UNK         0.0810 
    120 H120       29.2897   -0.5392   -9.9966 H         1 UNK         0.3040 
    121 H121       31.6885   -0.6212  -11.5680 H         1 UNK         0.0766 
    122 H122       31.0368   -2.4318  -10.0065 H         1 UNK         0.0812 
    123 H123       31.1569   -1.3321   -8.6372 H         1 UNK         0.0812 
    124 H124       32.5991   -1.7779   -9.5361 H         1 UNK         0.0812 
    125 H125       30.4981    1.7617   -9.4003 H         1 UNK         0.3205 
    126 H126       31.1914    3.6961   -8.6169 H         1 UNK         0.0754 
    127 H127       32.9994    4.9606   -9.7179 H         1 UNK         0.0769 
    128 H128       32.0113    4.1614  -10.9301 H         1 UNK         0.0769 
    129 H129       33.5951    3.5107  -10.5100 H         1 UNK         0.0769 
    130 H130       31.5092    1.7370   -6.9494 H         1 UNK         0.2981 
    131 H131       33.9229    2.4678   -5.4037 H         1 UNK         0.0541 
    132 H132       30.6506    2.7686   -5.3584 H         1 UNK         0.3459 
    133 H133       30.4587    2.7077   -3.6255 H         1 UNK         0.3459 
    134 H134       34.2750    0.1244   -4.6586 H         1 UNK         0.0612 
    135 H135       34.5717    0.3578   -6.3519 H         1 UNK         0.0612 
    136 H136       32.1112   -1.1675   -3.7069 H         1 UNK         0.0624 
    137 H137       33.4406   -2.2244   -4.1321 H         1 UNK         0.0624 
@<TRIPOS>BOND
     1    1    2 1    
     2    1   72 1    
     3    1   73 1    
     4    1   74 1    
     5    2    3 2    
     6    2    4 am   BACKBONE|DICT|INTERRES
     7    4    5 1    
     8    4   75 1    
     9    5    6 1    
    10    5   35 1    
    11    5   76 1    
    12    6    7 1    
    13    6   77 1    
    14    6   78 1    
    15    7    8 1    
    16    8    9 1    
    17    8   79 1    
    18    8   80 1    
    19    9   10 ar   
    20    9   14 ar   
    21   10   11 ar   
    22   10   81 1    
    23   11   12 ar   
    24   11   71 1    
    25   12   13 ar   
    26   12   82 1    
    27   13   14 ar   
    28   13   15 1    
    29   14   83 1    
    30   15   16 1    
    31   15   84 1    
    32   15   85 1    
    33   16   17 1    
    34   17   18 1    
    35   17   86 1    
    36   17   87 1    
    37   18   19 1    
    38   18   37 1    
    39   18   88 1    
    40   19   20 am   BACKBONE|DICT|INTERRES
    41   19   89 1    
    42   20   21 2    
    43   20   22 1    
    44   22   23 1    
    45   22   24 1    
    46   22   90 1    
    47   23   91 1    
    48   23   92 1    
    49   23   93 1    
    50   24   25 am   BACKBONE|DICT|INTERRES
    51   24   94 1    
    52   25   26 2    
    53   25   27 1    
    54   27   28 1    
    55   27   29 1    
    56   27   95 1    
    57   28   96 1    
    58   28   97 1    
    59   28   98 1    
    60   29   30 am   BACKBONE|DICT|INTERRES
    61   29   99 1    
    62   30   31 2    
    63   30   32 1    
    64   32   33 1    
    65   32   34 1    
    66   32  100 1    
    67   33  101 1    
    68   33  102 1    
    69   33  103 1    
    70   34   35 am   BACKBONE|DICT|INTERRES
    71   34  104 1    
    72   35   36 2    
    73   37   38 2    
    74   37   39 am   BACKBONE|DICT|INTERRES
    75   39   40 1    
    76   39  105 1    
    77   40   41 1    
    78   40   42 1    
    79   40  106 1    
    80   41  107 1    
    81   41  108 1    
    82   41  109 1    
    83   42   43 2    
    84   42   44 am   BACKBONE|DICT|INTERRES
    85   44   45 1    
    86   44  110 1    
    87   45   46 1    
    88   45   47 1    
    89   45  111 1    
    90   46  112 1    
    91   46  113 1    
    92   46  114 1    
    93   47   48 2    
    94   47   49 am   BACKBONE|DICT|INTERRES
    95   49   50 1    
    96   49  115 1    
    97   50   51 1    
    98   50   52 1    
    99   50  116 1    
   100   51  117 1    
   101   51  118 1    
   102   51  119 1    
   103   52   53 2    
   104   52   54 am   BACKBONE|DICT|INTERRES
   105   54   55 1    
   106   54  120 1    
   107   55   56 1    
   108   55   57 1    
   109   55  121 1    
   110   56  122 1    
   111   56  123 1    
   112   56  124 1    
   113   57   58 2    
   114   57   59 am   BACKBONE|DICT|INTERRES
   115   59   60 1    
   116   59  125 1    
   117   60   61 1    
   118   60   62 1    
   119   60  126 1    
   120   61  127 1    
   121   61  128 1    
   122   61  129 1    
   123   62   63 2    
   124   62   64 am   BACKBONE|DICT|INTERRES
   125   64   65 1    
   126   64  130 1    
   127   65   66 1    
   128   65   69 1    
   129   65  131 1    
   130   66   67 am   BACKBONE|DICT|INTERRES
   131   66   68 2    
   132   67  132 1    
   133   67  133 1    
   134   69   70 1    
   135   69  134 1    
   136   69  135 1    
   137   70   71 1    
   138   71  136 1    
   139   71  137 1    
@<TRIPOS>SUBSTRUCTURE
     1 UNK         1 GROUP             0       ****    0 ROOT    
