@<TRIPOS>MOLECULE
3R137
137   139    1
SMALL
USER_CHARGES


@<TRIPOS>ATOM
      1 CA         27.4623   -6.6000   -4.3421 C.3       0 UNK        -0.2020 
      2 C          26.7532   -7.2316   -3.1459 C.2       0 UNK         0.4855 
      3 O          26.4335   -8.4173   -3.2031 O.2       0 UNK        -0.5197 
      4 N          26.4841   -6.5161   -2.0415 N.am      1 UNK        -0.4892 
      5 CA         26.7252   -5.0912   -1.7688 C.3       1 UNK         0.0835 
      6 C6         28.2379   -4.7337   -1.6561 C.3       12 UNK        -0.0855 
      7 S7         28.5564   -3.5724   -0.2901 S.3       12 UNK        -0.2931 
      8 C8         30.3756   -3.4901   -0.3181 C.3       12 UNK         0.0378 
      9 C9         30.8824   -2.5160   -1.3718 C.ar      12 UNK        -0.0802 
     10 C10        31.5363   -2.9740   -2.5204 C.ar      12 UNK        -0.0944 
     11 C11        32.0253   -2.0658   -3.4661 C.ar      12 UNK        -0.0787 
     12 C12        31.8402   -0.6933   -3.2647 C.ar      12 UNK        -0.0862 
     13 C13        31.1888   -0.2244   -2.1204 C.ar      12 UNK        -0.0733 
     14 C14        30.7214   -1.1420   -1.1753 C.ar      12 UNK        -0.0832 
     15 C15        31.0113    1.2690   -1.8810 C.3       12 UNK         0.0240 
     16 S16        29.2483    1.7145   -1.7923 S.3       12 UNK        -0.2522 
     17 C17        29.0792    2.9490   -3.1249 C.3       12 UNK        -0.0967 
     18 CA         29.2021    2.3827   -4.5657 C.3       5 UNK         0.0660 
     19 N          28.5425    1.0817   -4.7197 N.am      5 UNK        -0.4015 
     20 C          28.3828    0.3814   -5.8510 C.2       4 UNK         0.4946 
     21 O          28.8802    0.6927   -6.9345 O.2       4 UNK        -0.5353 
     22 CA         27.4563   -0.8414   -5.7918 C.3       4 UNK         0.0277 
     23 CB         28.2920   -2.1260   -5.7157 C.3       4 UNK        -0.1981 
     24 N          26.4629   -0.8318   -4.7084 N.am      4 UNK        -0.4209 
     25 C          25.5644    0.1360   -4.4501 C.2       3 UNK         0.4942 
     26 O          25.5293    1.2096   -5.0593 O.2       3 UNK        -0.5208 
     27 CA         24.5575   -0.1246   -3.3077 C.3       3 UNK         0.0250 
     28 CB         23.2840    0.7389   -3.4339 C.3       3 UNK        -0.1990 
     29 N          24.2202   -1.5458   -3.1406 N.am      3 UNK        -0.4232 
     30 C          23.6702   -2.3587   -4.0566 C.2       2 UNK         0.4993 
     31 O          23.2353   -1.9665   -5.1407 O.2       2 UNK        -0.5286 
     32 CA         23.6168   -3.8685   -3.7247 C.3       2 UNK         0.0209 
     33 CB         23.7272   -4.7297   -5.0018 C.3       2 UNK        -0.1931 
     34 N          24.5914   -4.3580   -2.7305 N.am      2 UNK        -0.4546 
     35 C          25.9252   -4.1970   -2.7405 C.2       1 UNK         0.5154 
     36 O          26.5116   -3.4385   -3.5104 O.2       1 UNK        -0.5181 
     37 C          28.6853    3.4302   -5.5750 C.2       5 UNK         0.5014 
     38 O          29.4821    4.2013   -6.1101 O.2       5 UNK        -0.5248 
     39 N          27.3690    3.4106   -5.8264 N.am      6 UNK        -0.4434 
     40 CA         26.6980    4.2285   -6.8317 C.3       6 UNK         0.0363 
     41 CB         25.4997    4.9463   -6.1885 C.3       6 UNK        -0.1936 
     42 C          26.2367    3.3616   -8.0100 C.2       6 UNK         0.5081 
     43 O          26.4802    3.7313   -9.1580 O.2       6 UNK        -0.5248 
     44 N          25.5904    2.2227   -7.7158 N.am      7 UNK        -0.4718 
     45 CA         24.9101    1.3683   -8.6966 C.3       7 UNK         0.0273 
     46 CB         24.0620    0.3195   -7.9580 C.3       7 UNK        -0.1935 
     47 C          25.8349    0.6906   -9.7221 C.2       7 UNK         0.5018 
     48 O          25.3735    0.3771  -10.8202 O.2       7 UNK        -0.5186 
     49 N          27.1071    0.4852   -9.3612 N.am      8 UNK        -0.4240 
     50 CA         28.1417   -0.0819  -10.2274 C.3       8 UNK         0.0235 
     51 CB         28.4648   -1.5110   -9.7532 C.3       8 UNK        -0.2000 
     52 C          29.3954    0.8081  -10.2614 C.2       8 UNK         0.4941 
     53 O          30.4554    0.3235  -10.6577 O.2       8 UNK        -0.5273 
     54 N          29.2718    2.0746   -9.8276 N.am      9 UNK        -0.4262 
     55 CA         30.3392    3.0795   -9.7155 C.3       9 UNK         0.0264 
     56 CB         30.7340    3.5927  -11.1164 C.3       9 UNK        -0.1955 
     57 C          31.5529    2.5960   -8.8906 C.2       9 UNK         0.5031 
     58 O          32.6971    2.8104   -9.2959 O.2       9 UNK        -0.5390 
     59 N          31.2645    1.9360   -7.7602 N.am      10 UNK        -0.4204 
     60 CA         32.1922    1.2556   -6.8534 C.3       10 UNK         0.0237 
     61 CB         33.2352    2.2198   -6.2491 C.3       10 UNK        -0.1985 
     62 C          32.7928   -0.0072   -7.4901 C.2       10 UNK         0.4970 
     63 O          34.0123   -0.1840   -7.4925 O.2       10 UNK        -0.4914 
     64 N          31.8970   -0.8774   -7.9742 N.am      11 UNK        -0.4285 
     65 CA         32.1882   -2.2199   -8.5061 C.3       11 UNK         0.1007 
     66 C          33.0346   -2.2078   -9.8144 C.2       11 UNK         0.5703 
     67 N          32.8063   -1.2639  -10.7181 N.am      11 UNK        -0.7361 
     68 O          33.8927   -3.0620  -10.0281 O.2       11 UNK        -0.4986 
     69 C69        32.7394   -3.1989   -7.4248 C.3       12 UNK        -0.0947 
     70 S70        31.6870   -3.2834   -5.9340 S.3       12 UNK        -0.2240 
     71 C71        32.7919   -2.5611   -4.6837 C.3       12 UNK         0.0194 
     72 H72        26.8058   -5.9056   -4.8646 H         1 UNK         0.0906 
     73 H73        28.3682   -6.0758   -4.0457 H         1 UNK         0.0906 
     74 H74        27.7563   -7.3697   -5.0554 H         1 UNK         0.0906 
     75 H75        26.0170   -7.0027   -1.2881 H         1 UNK         0.3140 
     76 H76        26.2725   -4.9280   -0.7889 H         1 UNK         0.1085 
     77 H77        28.8193   -5.6335   -1.4484 H         1 UNK         0.0836 
     78 H78        28.6520   -4.3228   -2.5785 H         1 UNK         0.0836 
     79 H79        30.7916   -4.4872   -0.4708 H         1 UNK         0.0731 
     80 H80        30.7254   -3.1640    0.6626 H         1 UNK         0.0731 
     81 H81        31.6780   -4.0349   -2.6753 H         1 UNK         0.1312 
     82 H82        32.2255    0.0112   -3.9869 H         1 UNK         0.1406 
     83 H83        30.2211   -0.7849   -0.2849 H         1 UNK         0.1631 
     84 H84        31.5123    1.8505   -2.6561 H         1 UNK         0.0717 
     85 H85        31.4909    1.5393   -0.9393 H         1 UNK         0.0717 
     86 H86        28.1033    3.4171   -2.9768 H         1 UNK         0.0934 
     87 H87        29.8129    3.7420   -2.9662 H         1 UNK         0.0934 
     88 H88        30.2599    2.2259   -4.7735 H         1 UNK         0.0739 
     89 H89        28.1169    0.7169   -3.8798 H         1 UNK         0.3093 
     90 H90        26.9019   -0.8603   -6.7305 H         1 UNK         0.0818 
     91 H91        29.0513   -2.1477   -6.4965 H         1 UNK         0.0819 
     92 H92        28.8064   -2.2185   -4.7577 H         1 UNK         0.0819 
     93 H93        27.6725   -3.0121   -5.8524 H         1 UNK         0.0819 
     94 H94        26.4110   -1.6934   -4.1669 H         1 UNK         0.3041 
     95 H95        25.0668    0.1752   -2.3907 H         1 UNK         0.0784 
     96 H96        22.5888    0.5441   -2.6175 H         1 UNK         0.0793 
     97 H97        23.5274    1.8017   -3.4041 H         1 UNK         0.0793 
     98 H98        22.7608    0.5545   -4.3728 H         1 UNK         0.0793 
     99 H99        24.5487   -1.9747   -2.2868 H         1 UNK         0.3024 
    100 H100       22.6279   -4.0381   -3.2954 H         1 UNK         0.1171 
    101 H101       23.6665   -5.7936   -4.7719 H         1 UNK         0.0786 
    102 H102       22.9203   -4.5077   -5.7015 H         1 UNK         0.0786 
    103 H103       24.6686   -4.5523   -5.5233 H         1 UNK         0.0786 
    104 H104       24.2093   -4.9905   -2.0402 H         1 UNK         0.2977 
    105 H105       26.7995    2.7036   -5.3693 H         1 UNK         0.3127 
    106 H106       27.3762    4.9894   -7.2243 H         1 UNK         0.0770 
    107 H107       24.7832    4.2424   -5.7627 H         1 UNK         0.0814 
    108 H108       24.9672    5.5521   -6.9230 H         1 UNK         0.0814 
    109 H109       25.8237    5.6151   -5.3910 H         1 UNK         0.0814 
    110 H110       25.4658    1.9623   -6.7396 H         1 UNK         0.2983 
    111 H111       24.2304    2.0090   -9.2627 H         1 UNK         0.0947 
    112 H112       23.4828   -0.2803   -8.6612 H         1 UNK         0.0806 
    113 H113       23.3538    0.7880   -7.2742 H         1 UNK         0.0806 
    114 H114       24.6765   -0.3683   -7.3777 H         1 UNK         0.0806 
    115 H115       27.4127    0.7666   -8.4362 H         1 UNK         0.3000 
    116 H116       27.7872   -0.1367  -11.2586 H         1 UNK         0.0850 
    117 H117       29.1872   -1.9926  -10.4134 H         1 UNK         0.0810 
    118 H118       27.5719   -2.1360   -9.7431 H         1 UNK         0.0810 
    119 H119       28.8852   -1.5122   -8.7488 H         1 UNK         0.0810 
    120 H120       28.3489    2.3911   -9.5579 H         1 UNK         0.3040 
    121 H121       29.9133    3.9183   -9.1623 H         1 UNK         0.0766 
    122 H122       31.1986    2.8089  -11.7158 H         1 UNK         0.0812 
    123 H123       31.4467    4.4153  -11.0462 H         1 UNK         0.0812 
    124 H124       29.8664    3.9631  -11.6622 H         1 UNK         0.0812 
    125 H125       30.2818    1.7590   -7.5608 H         1 UNK         0.3205 
    126 H126       31.5805    0.8904   -6.0300 H         1 UNK         0.0754 
    127 H127       33.8208    1.7218   -5.4754 H         1 UNK         0.0769 
    128 H128       32.7551    3.0834   -5.7887 H         1 UNK         0.0769 
    129 H129       33.9378    2.5851   -6.9983 H         1 UNK         0.0769 
    130 H130       30.9224   -0.6164   -7.9574 H         1 UNK         0.2981 
    131 H131       31.2225   -2.6195   -8.8161 H         1 UNK         0.0541 
    132 H132       32.0450   -0.5987  -10.5941 H         1 UNK         0.3459 
    133 H133       33.3488   -1.2510  -11.5661 H         1 UNK         0.3459 
    134 H134       33.7589   -2.9285   -7.1457 H         1 UNK         0.0612 
    135 H135       32.8003   -4.2094   -7.8321 H         1 UNK         0.0612 
    136 H136       33.3591   -1.7406   -5.1245 H         1 UNK         0.0624 
    137 H137       33.5243   -3.3102   -4.3799 H         1 UNK         0.0624 
@<TRIPOS>BOND
     1    1    2 1    
     2    1   72 1    
     3    1   73 1    
     4    1   74 1    
     5    2    3 2    
     6    2    4 am   BACKBONE|DICT|INTERRES
     7    4    5 1    
     8    4   75 1    
     9    5    6 1    
    10    5   35 1    
    11    5   76 1    
    12    6    7 1    
    13    6   77 1    
    14    6   78 1    
    15    7    8 1    
    16    8    9 1    
    17    8   79 1    
    18    8   80 1    
    19    9   10 ar   
    20    9   14 ar   
    21   10   11 ar   
    22   10   81 1    
    23   11   12 ar   
    24   11   71 1    
    25   12   13 ar   
    26   12   82 1    
    27   13   14 ar   
    28   13   15 1    
    29   14   83 1    
    30   15   16 1    
    31   15   84 1    
    32   15   85 1    
    33   16   17 1    
    34   17   18 1    
    35   17   86 1    
    36   17   87 1    
    37   18   19 1    
    38   18   37 1    
    39   18   88 1    
    40   19   20 am   BACKBONE|DICT|INTERRES
    41   19   89 1    
    42   20   21 2    
    43   20   22 1    
    44   22   23 1    
    45   22   24 1    
    46   22   90 1    
    47   23   91 1    
    48   23   92 1    
    49   23   93 1    
    50   24   25 am   BACKBONE|DICT|INTERRES
    51   24   94 1    
    52   25   26 2    
    53   25   27 1    
    54   27   28 1    
    55   27   29 1    
    56   27   95 1    
    57   28   96 1    
    58   28   97 1    
    59   28   98 1    
    60   29   30 am   BACKBONE|DICT|INTERRES
    61   29   99 1    
    62   30   31 2    
    63   30   32 1    
    64   32   33 1    
    65   32   34 1    
    66   32  100 1    
    67   33  101 1    
    68   33  102 1    
    69   33  103 1    
    70   34   35 am   BACKBONE|DICT|INTERRES
    71   34  104 1    
    72   35   36 2    
    73   37   38 2    
    74   37   39 am   BACKBONE|DICT|INTERRES
    75   39   40 1    
    76   39  105 1    
    77   40   41 1    
    78   40   42 1    
    79   40  106 1    
    80   41  107 1    
    81   41  108 1    
    82   41  109 1    
    83   42   43 2    
    84   42   44 am   BACKBONE|DICT|INTERRES
    85   44   45 1    
    86   44  110 1    
    87   45   46 1    
    88   45   47 1    
    89   45  111 1    
    90   46  112 1    
    91   46  113 1    
    92   46  114 1    
    93   47   48 2    
    94   47   49 am   BACKBONE|DICT|INTERRES
    95   49   50 1    
    96   49  115 1    
    97   50   51 1    
    98   50   52 1    
    99   50  116 1    
   100   51  117 1    
   101   51  118 1    
   102   51  119 1    
   103   52   53 2    
   104   52   54 am   BACKBONE|DICT|INTERRES
   105   54   55 1    
   106   54  120 1    
   107   55   56 1    
   108   55   57 1    
   109   55  121 1    
   110   56  122 1    
   111   56  123 1    
   112   56  124 1    
   113   57   58 2    
   114   57   59 am   BACKBONE|DICT|INTERRES
   115   59   60 1    
   116   59  125 1    
   117   60   61 1    
   118   60   62 1    
   119   60  126 1    
   120   61  127 1    
   121   61  128 1    
   122   61  129 1    
   123   62   63 2    
   124   62   64 am   BACKBONE|DICT|INTERRES
   125   64   65 1    
   126   64  130 1    
   127   65   66 1    
   128   65   69 1    
   129   65  131 1    
   130   66   67 am   BACKBONE|DICT|INTERRES
   131   66   68 2    
   132   67  132 1    
   133   67  133 1    
   134   69   70 1    
   135   69  134 1    
   136   69  135 1    
   137   70   71 1    
   138   71  136 1    
   139   71  137 1    
@<TRIPOS>SUBSTRUCTURE
     1 UNK         1 GROUP             0       ****    0 ROOT    
