@<TRIPOS>MOLECULE
3R137
137   139    1
SMALL
USER_CHARGES


@<TRIPOS>ATOM
      1 CA         27.7580   -7.1653   -2.2191 C.3       0 UNK        -0.2020 
      2 C          27.6357   -6.0069   -1.2404 C.2       0 UNK         0.4855 
      3 O          27.6348   -6.2267   -0.0292 O.2       0 UNK        -0.5197 
      4 N          27.5378   -4.7813   -1.7625 N.am      1 UNK        -0.4892 
      5 CA         27.3329   -3.5420   -1.0140 C.3       1 UNK         0.0835 
      6 C6         28.5893   -2.6317   -1.0351 C.3       12 UNK        -0.0855 
      7 S7         29.8780   -3.1269    0.1716 S.3       12 UNK        -0.2931 
      8 C8         30.9662   -4.3009   -0.7144 C.3       12 UNK         0.0378 
      9 C9         31.3145   -3.8328   -2.1174 C.ar      12 UNK        -0.0802 
     10 C10        32.2551   -2.8179   -2.3249 C.ar      12 UNK        -0.0944 
     11 C11        32.4750   -2.3159   -3.6123 C.ar      12 UNK        -0.0787 
     12 C12        31.7486   -2.8377   -4.6854 C.ar      12 UNK        -0.0862 
     13 C13        30.8079   -3.8499   -4.4869 C.ar      12 UNK        -0.0733 
     14 C14        30.6291   -4.3731   -3.2074 C.ar      12 UNK        -0.0832 
     15 C15        29.9154   -4.3150   -5.6285 C.3       12 UNK         0.0240 
     16 S16        28.1710   -3.8616   -5.3279 S.3       12 UNK        -0.2522 
     17 C17        28.2640   -2.0399   -5.2073 C.3       12 UNK        -0.0967 
     18 CA         27.4416   -1.3465   -6.3144 C.3       5 UNK         0.0660 
     19 N          25.9990   -1.5151   -6.1220 N.am      5 UNK        -0.4015 
     20 C          25.0847   -1.2550   -7.0666 C.2       4 UNK         0.4946 
     21 O          25.3611   -0.8642   -8.2016 O.2       4 UNK        -0.5353 
     22 CA         23.6116   -1.4097   -6.6572 C.3       4 UNK         0.0277 
     23 CB         23.2335   -2.8931   -6.5122 C.3       4 UNK        -0.1981 
     24 N          23.2874   -0.6928   -5.4206 N.am      4 UNK        -0.4209 
     25 C          23.4002    0.6333   -5.2520 C.2       3 UNK         0.4942 
     26 O          23.7875    1.4020   -6.1291 O.2       3 UNK        -0.5208 
     27 CA         23.0359    1.2124   -3.8751 C.3       3 UNK         0.0250 
     28 CB         21.5961    1.7500   -3.8867 C.3       3 UNK        -0.1990 
     29 N          23.1913    0.2666   -2.7683 N.am      3 UNK        -0.4232 
     30 C          24.3532   -0.2588   -2.3558 C.2       2 UNK         0.4993 
     31 O          25.4412    0.0003   -2.8789 O.2       2 UNK        -0.5286 
     32 CA         24.2593   -1.2045   -1.1393 C.3       2 UNK         0.0209 
     33 CB         23.0706   -2.1895   -1.2456 C.3       2 UNK        -0.1931 
     34 N          25.4959   -1.9424   -0.8491 N.am      2 UNK        -0.4546 
     35 C          26.1143   -2.8335   -1.6370 C.2       1 UNK         0.5154 
     36 O          25.7534   -3.1138   -2.7857 O.2       1 UNK        -0.5181 
     37 C          27.8388    0.1368   -6.4498 C.2       5 UNK         0.5014 
     38 O          28.7699    0.4338   -7.1976 O.2       5 UNK        -0.5248 
     39 N          27.1280    1.0399   -5.7557 N.am      6 UNK        -0.4434 
     40 CA         27.3230    2.4880   -5.8633 C.3       6 UNK         0.0363 
     41 CB         26.5496    3.2108   -4.7493 C.3       6 UNK        -0.1936 
     42 C          26.9297    3.0250   -7.2501 C.2       6 UNK         0.5081 
     43 O          27.7041    3.7698   -7.8499 O.2       6 UNK        -0.5248 
     44 N          25.7605    2.6061   -7.7564 N.am      7 UNK        -0.4718 
     45 CA         25.2550    2.9418   -9.0920 C.3       7 UNK         0.0273 
     46 CB         23.8069    2.4470   -9.2326 C.3       7 UNK        -0.1935 
     47 C          26.1287    2.3811  -10.2263 C.2       7 UNK         0.5018 
     48 O          26.2970    3.0491  -11.2469 O.2       7 UNK        -0.5186 
     49 N          26.6957    1.1857  -10.0145 N.am      8 UNK        -0.4240 
     50 CA         27.6613    0.5481  -10.9128 C.3       8 UNK         0.0235 
     51 CB         27.7392   -0.9500  -10.5731 C.3       8 UNK        -0.2000 
     52 C          29.0690    1.1756  -10.8662 C.2       8 UNK         0.4941 
     53 O          29.9093    0.7952  -11.6836 O.2       8 UNK        -0.5273 
     54 N          29.3318    2.0724   -9.9020 N.am      9 UNK        -0.4262 
     55 CA         30.6078    2.7181   -9.5556 C.3       9 UNK         0.0264 
     56 CB         31.1856    3.5343  -10.7282 C.3       9 UNK        -0.1955 
     57 C          31.6508    1.7495   -8.9696 C.2       9 UNK         0.5031 
     58 O          32.2379    2.0630   -7.9324 O.2       9 UNK        -0.5390 
     59 N          31.8358    0.5966   -9.6284 N.am      10 UNK        -0.4204 
     60 CA         32.6024   -0.5850   -9.2262 C.3       10 UNK         0.0237 
     61 CB         31.7929   -1.3964   -8.1953 C.3       10 UNK        -0.1985 
     62 C          34.0380   -0.2625   -8.7713 C.2       10 UNK         0.4970 
     63 O          34.9206   -0.1427   -9.6224 O.2       10 UNK        -0.4914 
     64 N          34.2435   -0.1329   -7.4537 N.am      11 UNK        -0.4285 
     65 CA         35.5243    0.2338   -6.8283 C.3       11 UNK         0.1007 
     66 C          35.9999    1.6826   -7.1451 C.2       11 UNK         0.5703 
     67 N          35.1252    2.5916   -7.5626 N.am      11 UNK        -0.7361 
     68 O          37.1836    1.9830   -7.0091 O.2       11 UNK        -0.4986 
     69 C69        35.5265   -0.0029   -5.2917 C.3       12 UNK        -0.0947 
     70 S70        34.9020   -1.6442   -4.7871 S.3       12 UNK        -0.2240 
     71 C71        33.4234   -1.1506   -3.8468 C.3       12 UNK         0.0194 
     72 H72        28.6977   -7.6935   -2.0596 H         1 UNK         0.0906 
     73 H73        26.9409   -7.8706   -2.0698 H         1 UNK         0.0906 
     74 H74        27.7295   -6.8290   -3.2558 H         1 UNK         0.0906 
     75 H75        27.4329   -4.6636   -2.7634 H         1 UNK         0.3140 
     76 H76        27.0719   -3.7695    0.0223 H         1 UNK         0.1085 
     77 H77        28.9970   -2.5456   -2.0418 H         1 UNK         0.0836 
     78 H78        28.3185   -1.6104   -0.7600 H         1 UNK         0.0836 
     79 H79        30.4837   -5.2785   -0.7443 H         1 UNK         0.0731 
     80 H80        31.8824   -4.4367   -0.1379 H         1 UNK         0.0731 
     81 H81        32.7782   -2.3914   -1.4799 H         1 UNK         0.1312 
     82 H82        31.8905   -2.4230   -5.6694 H         1 UNK         0.1406 
     83 H83        29.8943   -5.1489   -3.0525 H         1 UNK         0.1631 
     84 H84        29.9919   -5.3983   -5.7313 H         1 UNK         0.0717 
     85 H85        30.2381   -3.8878   -6.5794 H         1 UNK         0.0717 
     86 H86        27.9174   -1.7339   -4.2184 H         1 UNK         0.0934 
     87 H87        29.3072   -1.7285   -5.2665 H         1 UNK         0.0934 
     88 H88        27.7012   -1.8190   -7.2643 H         1 UNK         0.0739 
     89 H89        25.6975   -1.8325   -5.2102 H         1 UNK         0.3093 
     90 H90        23.0035   -0.9796   -7.4561 H         1 UNK         0.0818 
     91 H91        23.4682   -3.4455   -7.4233 H         1 UNK         0.0819 
     92 H92        23.7703   -3.3733   -5.6926 H         1 UNK         0.0819 
     93 H93        22.1656   -3.0137   -6.3295 H         1 UNK         0.0819 
     94 H94        22.9626   -1.2462   -4.6417 H         1 UNK         0.3041 
     95 H95        23.7086    2.0508   -3.6858 H         1 UNK         0.0784 
     96 H96        21.4593    2.4800   -4.6862 H         1 UNK         0.0793 
     97 H97        20.8674    0.9539   -4.0450 H         1 UNK         0.0793 
     98 H98        21.3506    2.2508   -2.9499 H         1 UNK         0.0793 
     99 H99        22.3474    0.0125   -2.2752 H         1 UNK         0.3024 
    100 H100       24.0851   -0.5618   -0.2745 H         1 UNK         0.1171 
    101 H101       23.0613   -2.8870   -0.4078 H         1 UNK         0.0786 
    102 H102       22.1111   -1.6720   -1.2289 H         1 UNK         0.0786 
    103 H103       23.1112   -2.7776   -2.1634 H         1 UNK         0.0786 
    104 H104       25.9016   -1.7524    0.0570 H         1 UNK         0.2977 
    105 H105       26.3857    0.7180   -5.1489 H         1 UNK         0.3127 
    106 H106       28.3868    2.6896   -5.7181 H         1 UNK         0.0770 
    107 H107       25.4720    3.1106   -4.8720 H         1 UNK         0.0814 
    108 H108       26.7758    4.2778   -4.7530 H         1 UNK         0.0814 
    109 H109       26.8140    2.8256   -3.7642 H         1 UNK         0.0814 
    110 H110       25.1524    2.0288   -7.1769 H         1 UNK         0.2983 
    111 H111       25.2567    4.0300   -9.1840 H         1 UNK         0.0947 
    112 H112       23.4018    2.6920  -10.2153 H         1 UNK         0.0806 
    113 H113       23.1571    2.9090   -8.4891 H         1 UNK         0.0806 
    114 H114       23.7379    1.3653   -9.1086 H         1 UNK         0.0806 
    115 H115       26.4421    0.6723   -9.1762 H         1 UNK         0.3000 
    116 H116       27.2959    0.6484  -11.9369 H         1 UNK         0.0850 
    117 H117       28.3974   -1.4768  -11.2653 H         1 UNK         0.0810 
    118 H118       26.7593   -1.4239  -10.6347 H         1 UNK         0.0810 
    119 H119       28.1275   -1.1121   -9.5673 H         1 UNK         0.0810 
    120 H120       28.5803    2.2839   -9.2560 H         1 UNK         0.3040 
    121 H121       30.3622    3.4239   -8.7605 H         1 UNK         0.0766 
    122 H122       31.4872    2.9022  -11.5635 H         1 UNK         0.0812 
    123 H123       32.0681    4.0918  -10.4119 H         1 UNK         0.0812 
    124 H124       30.4606    4.2583  -11.1001 H         1 UNK         0.0812 
    125 H125       31.3030    0.5003  -10.4911 H         1 UNK         0.3205 
    126 H126       32.6994   -1.2032  -10.1200 H         1 UNK         0.0754 
    127 H127       32.3424   -2.2858   -7.8847 H         1 UNK         0.0769 
    128 H128       30.8489   -1.7362   -8.6221 H         1 UNK         0.0769 
    129 H129       31.5509   -0.8084   -7.3092 H         1 UNK         0.0769 
    130 H130       33.4513   -0.2019   -6.8347 H         1 UNK         0.2981 
    131 H131       36.2764   -0.4313   -7.2566 H         1 UNK         0.0541 
    132 H132       35.4418    3.5258   -7.7657 H         1 UNK         0.3459 
    133 H133       34.1421    2.3543   -7.6637 H         1 UNK         0.3459 
    134 H134       34.9453    0.7730   -4.7898 H         1 UNK         0.0612 
    135 H135       36.5422    0.0919   -4.9032 H         1 UNK         0.0612 
    136 H136       32.8869   -0.3722   -4.3917 H         1 UNK         0.0624 
    137 H137       33.7363   -0.7065   -2.9005 H         1 UNK         0.0624 
@<TRIPOS>BOND
     1    1    2 1    
     2    1   72 1    
     3    1   73 1    
     4    1   74 1    
     5    2    3 2    
     6    2    4 am   BACKBONE|DICT|INTERRES
     7    4    5 1    
     8    4   75 1    
     9    5    6 1    
    10    5   35 1    
    11    5   76 1    
    12    6    7 1    
    13    6   77 1    
    14    6   78 1    
    15    7    8 1    
    16    8    9 1    
    17    8   79 1    
    18    8   80 1    
    19    9   10 ar   
    20    9   14 ar   
    21   10   11 ar   
    22   10   81 1    
    23   11   12 ar   
    24   11   71 1    
    25   12   13 ar   
    26   12   82 1    
    27   13   14 ar   
    28   13   15 1    
    29   14   83 1    
    30   15   16 1    
    31   15   84 1    
    32   15   85 1    
    33   16   17 1    
    34   17   18 1    
    35   17   86 1    
    36   17   87 1    
    37   18   19 1    
    38   18   37 1    
    39   18   88 1    
    40   19   20 am   BACKBONE|DICT|INTERRES
    41   19   89 1    
    42   20   21 2    
    43   20   22 1    
    44   22   23 1    
    45   22   24 1    
    46   22   90 1    
    47   23   91 1    
    48   23   92 1    
    49   23   93 1    
    50   24   25 am   BACKBONE|DICT|INTERRES
    51   24   94 1    
    52   25   26 2    
    53   25   27 1    
    54   27   28 1    
    55   27   29 1    
    56   27   95 1    
    57   28   96 1    
    58   28   97 1    
    59   28   98 1    
    60   29   30 am   BACKBONE|DICT|INTERRES
    61   29   99 1    
    62   30   31 2    
    63   30   32 1    
    64   32   33 1    
    65   32   34 1    
    66   32  100 1    
    67   33  101 1    
    68   33  102 1    
    69   33  103 1    
    70   34   35 am   BACKBONE|DICT|INTERRES
    71   34  104 1    
    72   35   36 2    
    73   37   38 2    
    74   37   39 am   BACKBONE|DICT|INTERRES
    75   39   40 1    
    76   39  105 1    
    77   40   41 1    
    78   40   42 1    
    79   40  106 1    
    80   41  107 1    
    81   41  108 1    
    82   41  109 1    
    83   42   43 2    
    84   42   44 am   BACKBONE|DICT|INTERRES
    85   44   45 1    
    86   44  110 1    
    87   45   46 1    
    88   45   47 1    
    89   45  111 1    
    90   46  112 1    
    91   46  113 1    
    92   46  114 1    
    93   47   48 2    
    94   47   49 am   BACKBONE|DICT|INTERRES
    95   49   50 1    
    96   49  115 1    
    97   50   51 1    
    98   50   52 1    
    99   50  116 1    
   100   51  117 1    
   101   51  118 1    
   102   51  119 1    
   103   52   53 2    
   104   52   54 am   BACKBONE|DICT|INTERRES
   105   54   55 1    
   106   54  120 1    
   107   55   56 1    
   108   55   57 1    
   109   55  121 1    
   110   56  122 1    
   111   56  123 1    
   112   56  124 1    
   113   57   58 2    
   114   57   59 am   BACKBONE|DICT|INTERRES
   115   59   60 1    
   116   59  125 1    
   117   60   61 1    
   118   60   62 1    
   119   60  126 1    
   120   61  127 1    
   121   61  128 1    
   122   61  129 1    
   123   62   63 2    
   124   62   64 am   BACKBONE|DICT|INTERRES
   125   64   65 1    
   126   64  130 1    
   127   65   66 1    
   128   65   69 1    
   129   65  131 1    
   130   66   67 am   BACKBONE|DICT|INTERRES
   131   66   68 2    
   132   67  132 1    
   133   67  133 1    
   134   69   70 1    
   135   69  134 1    
   136   69  135 1    
   137   70   71 1    
   138   71  136 1    
   139   71  137 1    
@<TRIPOS>SUBSTRUCTURE
     1 UNK         1 GROUP             0       ****    0 ROOT    
