@<TRIPOS>MOLECULE
3R137
137   139    1
SMALL
USER_CHARGES


@<TRIPOS>ATOM
      1 CA         23.7361   -1.9187   -0.0970 C.3       0 UNK        -0.2020 
      2 C          24.8346   -1.0207   -0.6446 C.2       0 UNK         0.4855 
      3 O          24.6317    0.1875   -0.7706 O.2       0 UNK        -0.5197 
      4 N          25.9964   -1.5983   -0.9799 N.am      1 UNK        -0.4892 
      5 CA         27.1446   -0.9007   -1.5686 C.3       1 UNK         0.0835 
      6 C6         28.3811   -1.8305   -1.6561 C.3       12 UNK        -0.0855 
      7 S7         29.9538   -0.9040   -1.6683 S.3       12 UNK        -0.2931 
      8 C8         31.1813   -2.2547   -1.6725 C.3       12 UNK         0.0378 
      9 C9         31.1188   -3.0812   -2.9501 C.ar      12 UNK        -0.0802 
     10 C10        31.7691   -2.6461   -4.1091 C.ar      12 UNK        -0.0944 
     11 C11        31.6658   -3.3760   -5.2985 C.ar      12 UNK        -0.0787 
     12 C12        30.9183   -4.5585   -5.3176 C.ar      12 UNK        -0.0862 
     13 C13        30.2752   -5.0086   -4.1616 C.ar      12 UNK        -0.0733 
     14 C14        30.3895   -4.2726   -2.9793 C.ar      12 UNK        -0.0832 
     15 C15        29.4501   -6.2851   -4.1755 C.3       12 UNK         0.0240 
     16 S16        27.6643   -5.9266   -4.1450 S.3       12 UNK        -0.2522 
     17 C17        27.2241   -5.8665   -5.9205 C.3       12 UNK        -0.0967 
     18 CA         26.6167   -4.5184   -6.3987 C.3       5 UNK         0.0660 
     19 N          25.6048   -4.0160   -5.4670 N.am      5 UNK        -0.4015 
     20 C          24.7173   -3.0402   -5.6892 C.2       4 UNK         0.4946 
     21 O          24.7349   -2.3110   -6.6829 O.2       4 UNK        -0.5353 
     22 CA         23.6055   -2.8648   -4.6403 C.3       4 UNK         0.0277 
     23 CB         23.7722   -3.7295   -3.3714 C.3       4 UNK        -0.1981 
     24 N          23.5288   -1.4606   -4.2591 N.am      4 UNK        -0.4209 
     25 C          22.4023   -0.7492   -4.1172 C.2       3 UNK         0.4942 
     26 O          21.2765   -1.2208   -4.2848 O.2       3 UNK        -0.5208 
     27 CA         22.5312    0.7314   -3.7027 C.3       3 UNK         0.0250 
     28 CB         21.7478    1.0174   -2.4094 C.3       3 UNK        -0.1990 
     29 N          23.9243    1.1515   -3.5258 N.am      3 UNK        -0.4232 
     30 C          24.7243    1.5368   -4.5309 C.2       2 UNK         0.4993 
     31 O          24.3324    1.6791   -5.6886 O.2       2 UNK        -0.5286 
     32 CA         26.2127    1.7643   -4.2076 C.3       2 UNK         0.0209 
     33 CB         26.5048    3.2609   -4.0167 C.3       2 UNK        -0.1931 
     34 N          26.6889    1.0247   -3.0315 N.am      2 UNK        -0.4546 
     35 C          26.7574   -0.3111   -2.9416 C.2       1 UNK         0.5154 
     36 O          26.4701   -1.0720   -3.8695 O.2       1 UNK        -0.5181 
     37 C          27.7011   -3.5153   -6.8453 C.2       5 UNK         0.5014 
     38 O          28.3480   -3.7907   -7.8584 O.2       5 UNK        -0.5248 
     39 N          27.8974   -2.3897   -6.1406 N.am      6 UNK        -0.4434 
     40 CA         28.8806   -1.3804   -6.5504 C.3       6 UNK         0.0363 
     41 CB         29.3625   -0.5688   -5.3422 C.3       6 UNK        -0.1936 
     42 C          28.3606   -0.4362   -7.6395 C.2       6 UNK         0.5081 
     43 O          29.1849    0.1430   -8.3477 O.2       6 UNK        -0.5248 
     44 N          27.0311   -0.2745   -7.7412 N.am      7 UNK        -0.4718 
     45 CA         26.3285    0.6407   -8.6501 C.3       7 UNK         0.0273 
     46 CB         26.3361    0.0627  -10.0834 C.3       7 UNK        -0.1935 
     47 C          26.8759    2.0812   -8.5443 C.2       7 UNK         0.5018 
     48 O          26.9500    2.6169   -7.4374 O.2       7 UNK        -0.5186 
     49 N          27.3179    2.6690   -9.6640 N.am      8 UNK        -0.4240 
     50 CA         27.9774    3.9782   -9.7334 C.3       8 UNK         0.0235 
     51 CB         27.8216    4.5344  -11.1618 C.3       8 UNK        -0.2000 
     52 C          29.4524    3.9336   -9.2686 C.2       8 UNK         0.4941 
     53 O          30.3250    4.4644   -9.9581 O.2       8 UNK        -0.5273 
     54 N          29.6968    3.3015   -8.1105 N.am      9 UNK        -0.4262 
     55 CA         30.9841    3.1033   -7.4327 C.3       9 UNK         0.0264 
     56 CB         31.4825    4.4352   -6.8340 C.3       9 UNK        -0.1955 
     57 C          32.0410    2.4127   -8.3190 C.2       9 UNK         0.5031 
     58 O          33.1709    2.8955   -8.4234 O.2       9 UNK        -0.5390 
     59 N          31.6599    1.2845   -8.9357 N.am      10 UNK        -0.4204 
     60 CA         32.4690    0.5165   -9.8925 C.3       10 UNK         0.0237 
     61 CB         31.6328   -0.6579  -10.4269 C.3       10 UNK        -0.1985 
     62 C          33.8165    0.0050   -9.3472 C.2       10 UNK         0.4970 
     63 O          34.7565   -0.1567  -10.1265 O.2       10 UNK        -0.4914 
     64 N          33.8857   -0.2290   -8.0320 N.am      11 UNK        -0.4285 
     65 CA         35.1018   -0.6198   -7.3024 C.3       11 UNK         0.1007 
     66 C          35.9829    0.5885   -6.8649 C.2       11 UNK         0.5703 
     67 N          35.6027    1.8354   -7.1229 N.am      11 UNK        -0.7361 
     68 O          37.0500    0.3901   -6.2887 O.2       11 UNK        -0.4986 
     69 C69        34.7667   -1.5533   -6.1063 C.3       12 UNK        -0.0947 
     70 S70        34.0912   -3.1603   -6.6503 S.3       12 UNK        -0.2240 
     71 C71        32.2997   -2.8589   -6.5816 C.3       12 UNK         0.0194 
     72 H72        24.0540   -2.9589   -0.0293 H         1 UNK         0.0906 
     73 H73        23.4438   -1.5874    0.8990 H         1 UNK         0.0906 
     74 H74        22.8591   -1.8735   -0.7419 H         1 UNK         0.0906 
     75 H75        26.1021   -2.5962   -0.8672 H         1 UNK         0.3140 
     76 H76        27.3851   -0.0784   -0.8907 H         1 UNK         0.1085 
     77 H77        28.4136   -2.4926   -0.7892 H         1 UNK         0.0836 
     78 H78        28.3222   -2.4826   -2.5297 H         1 UNK         0.0836 
     79 H79        31.0277   -2.8876   -0.7969 H         1 UNK         0.0731 
     80 H80        32.1783   -1.8251   -1.5646 H         1 UNK         0.0731 
     81 H81        32.3220   -1.7181   -4.0908 H         1 UNK         0.1312 
     82 H82        30.8203   -5.1178   -6.2381 H         1 UNK         0.1406 
     83 H83        29.8827   -4.6157   -2.0874 H         1 UNK         0.1631 
     84 H84        29.6989   -6.8766   -3.2932 H         1 UNK         0.0717 
     85 H85        29.7005   -6.9100   -5.0339 H         1 UNK         0.0717 
     86 H86        28.0792   -6.1558   -6.5347 H         1 UNK         0.0934 
     87 H87        26.4885   -6.6560   -6.0824 H         1 UNK         0.0934 
     88 H88        26.0695   -4.7401   -7.3178 H         1 UNK         0.0739 
     89 H89        25.5453   -4.5249   -4.5969 H         1 UNK         0.3093 
     90 H90        22.6802   -3.1639   -5.1369 H         1 UNK         0.0818 
     91 H91        24.7002   -3.5043   -2.8448 H         1 UNK         0.0819 
     92 H92        22.9497   -3.5608   -2.6764 H         1 UNK         0.0819 
     93 H93        23.7653   -4.7944   -3.6077 H         1 UNK         0.0819 
     94 H94        24.4258   -0.9974   -4.1610 H         1 UNK         0.3041 
     95 H95        22.0794    1.3254   -4.5000 H         1 UNK         0.0784 
     96 H96        20.6860    0.8047   -2.5406 H         1 UNK         0.0793 
     97 H97        22.0985    0.4077   -1.5773 H         1 UNK         0.0793 
     98 H98        21.8322    2.0642   -2.1172 H         1 UNK         0.0793 
     99 H99        24.3168    1.0296   -2.5963 H         1 UNK         0.3024 
    100 H100       26.7702    1.4172   -5.0783 H         1 UNK         0.1171 
    101 H101       26.1866    3.8318   -4.8906 H         1 UNK         0.0786 
    102 H102       25.9825    3.6689   -3.1506 H         1 UNK         0.0786 
    103 H103       27.5718    3.4431   -3.8870 H         1 UNK         0.0786 
    104 H104       26.9110    1.5765   -2.2150 H         1 UNK         0.2977 
    105 H105       27.3240   -2.1825   -5.3279 H         1 UNK         0.3127 
    106 H106       29.7467   -1.8963   -6.9636 H         1 UNK         0.0770 
    107 H107       28.6632    0.2164   -5.0667 H         1 UNK         0.0814 
    108 H108       30.3160   -0.0853   -5.5556 H         1 UNK         0.0814 
    109 H109       29.5031   -1.2067   -4.4743 H         1 UNK         0.0814 
    110 H110       26.4376   -0.8102   -7.1187 H         1 UNK         0.2983 
    111 H111       25.2932    0.6839   -8.3075 H         1 UNK         0.0947 
    112 H112       25.7439    0.6757  -10.7640 H         1 UNK         0.0806 
    113 H113       25.8996   -0.9362  -10.0992 H         1 UNK         0.0806 
    114 H114       27.3454   -0.0169  -10.4897 H         1 UNK         0.0806 
    115 H115       27.2777    2.1408  -10.5234 H         1 UNK         0.3000 
    116 H116       27.4585    4.6612   -9.0572 H         1 UNK         0.0850 
    117 H117       28.2370    5.5402  -11.2387 H         1 UNK         0.0810 
    118 H118       26.7725    4.5990  -11.4512 H         1 UNK         0.0810 
    119 H119       28.3356    3.9118  -11.8952 H         1 UNK         0.0810 
    120 H120       28.8873    2.8974   -7.6476 H         1 UNK         0.3040 
    121 H121       30.7903    2.4212   -6.6035 H         1 UNK         0.0766 
    122 H122       30.7368    4.8769   -6.1731 H         1 UNK         0.0812 
    123 H123       31.7162    5.1639   -7.6110 H         1 UNK         0.0812 
    124 H124       32.3883    4.2854   -6.2451 H         1 UNK         0.0812 
    125 H125       30.7108    0.9417   -8.7725 H         1 UNK         0.3205 
    126 H126       32.6940    1.1833  -10.7273 H         1 UNK         0.0754 
    127 H127       32.1888   -1.2308  -11.1704 H         1 UNK         0.0769 
    128 H128       30.7178   -0.3078  -10.9056 H         1 UNK         0.0769 
    129 H129       31.3486   -1.3453   -9.6286 H         1 UNK         0.0769 
    130 H130       33.0721   -0.0356   -7.4704 H         1 UNK         0.2981 
    131 H131       35.7347   -1.1920   -7.9834 H         1 UNK         0.0541 
    132 H132       36.1986    2.5940   -6.8332 H         1 UNK         0.3459 
    133 H133       34.7412    2.0407   -7.6193 H         1 UNK         0.3459 
    134 H134       34.0788   -1.0656   -5.4154 H         1 UNK         0.0612 
    135 H135       35.6656   -1.7753   -5.5285 H         1 UNK         0.0612 
    136 H136       32.0922   -1.7946   -6.6866 H         1 UNK         0.0624 
    137 H137       31.8401   -3.3381   -7.4475 H         1 UNK         0.0624 
@<TRIPOS>BOND
     1    1    2 1    
     2    1   72 1    
     3    1   73 1    
     4    1   74 1    
     5    2    3 2    
     6    2    4 am   BACKBONE|DICT|INTERRES
     7    4    5 1    
     8    4   75 1    
     9    5    6 1    
    10    5   35 1    
    11    5   76 1    
    12    6    7 1    
    13    6   77 1    
    14    6   78 1    
    15    7    8 1    
    16    8    9 1    
    17    8   79 1    
    18    8   80 1    
    19    9   10 ar   
    20    9   14 ar   
    21   10   11 ar   
    22   10   81 1    
    23   11   12 ar   
    24   11   71 1    
    25   12   13 ar   
    26   12   82 1    
    27   13   14 ar   
    28   13   15 1    
    29   14   83 1    
    30   15   16 1    
    31   15   84 1    
    32   15   85 1    
    33   16   17 1    
    34   17   18 1    
    35   17   86 1    
    36   17   87 1    
    37   18   19 1    
    38   18   37 1    
    39   18   88 1    
    40   19   20 am   BACKBONE|DICT|INTERRES
    41   19   89 1    
    42   20   21 2    
    43   20   22 1    
    44   22   23 1    
    45   22   24 1    
    46   22   90 1    
    47   23   91 1    
    48   23   92 1    
    49   23   93 1    
    50   24   25 am   BACKBONE|DICT|INTERRES
    51   24   94 1    
    52   25   26 2    
    53   25   27 1    
    54   27   28 1    
    55   27   29 1    
    56   27   95 1    
    57   28   96 1    
    58   28   97 1    
    59   28   98 1    
    60   29   30 am   BACKBONE|DICT|INTERRES
    61   29   99 1    
    62   30   31 2    
    63   30   32 1    
    64   32   33 1    
    65   32   34 1    
    66   32  100 1    
    67   33  101 1    
    68   33  102 1    
    69   33  103 1    
    70   34   35 am   BACKBONE|DICT|INTERRES
    71   34  104 1    
    72   35   36 2    
    73   37   38 2    
    74   37   39 am   BACKBONE|DICT|INTERRES
    75   39   40 1    
    76   39  105 1    
    77   40   41 1    
    78   40   42 1    
    79   40  106 1    
    80   41  107 1    
    81   41  108 1    
    82   41  109 1    
    83   42   43 2    
    84   42   44 am   BACKBONE|DICT|INTERRES
    85   44   45 1    
    86   44  110 1    
    87   45   46 1    
    88   45   47 1    
    89   45  111 1    
    90   46  112 1    
    91   46  113 1    
    92   46  114 1    
    93   47   48 2    
    94   47   49 am   BACKBONE|DICT|INTERRES
    95   49   50 1    
    96   49  115 1    
    97   50   51 1    
    98   50   52 1    
    99   50  116 1    
   100   51  117 1    
   101   51  118 1    
   102   51  119 1    
   103   52   53 2    
   104   52   54 am   BACKBONE|DICT|INTERRES
   105   54   55 1    
   106   54  120 1    
   107   55   56 1    
   108   55   57 1    
   109   55  121 1    
   110   56  122 1    
   111   56  123 1    
   112   56  124 1    
   113   57   58 2    
   114   57   59 am   BACKBONE|DICT|INTERRES
   115   59   60 1    
   116   59  125 1    
   117   60   61 1    
   118   60   62 1    
   119   60  126 1    
   120   61  127 1    
   121   61  128 1    
   122   61  129 1    
   123   62   63 2    
   124   62   64 am   BACKBONE|DICT|INTERRES
   125   64   65 1    
   126   64  130 1    
   127   65   66 1    
   128   65   69 1    
   129   65  131 1    
   130   66   67 am   BACKBONE|DICT|INTERRES
   131   66   68 2    
   132   67  132 1    
   133   67  133 1    
   134   69   70 1    
   135   69  134 1    
   136   69  135 1    
   137   70   71 1    
   138   71  136 1    
   139   71  137 1    
@<TRIPOS>SUBSTRUCTURE
     1 UNK         1 GROUP             0       ****    0 ROOT    
