@<TRIPOS>MOLECULE
3R137
137   139    1
SMALL
USER_CHARGES


@<TRIPOS>ATOM
      1 CA         31.4009   -0.0107   -0.7909 C.3       0 UNK        -0.2020 
      2 C          30.3316   -0.8460   -1.4747 C.2       0 UNK         0.4855 
      3 O          29.8886   -0.5104   -2.5724 O.2       0 UNK        -0.5197 
      4 N          29.8842   -1.9212   -0.8171 N.am      1 UNK        -0.4892 
      5 CA         28.9262   -2.9187   -1.3210 C.3       1 UNK         0.0835 
      6 C6         29.0820   -4.2795   -0.5803 C.3       12 UNK        -0.0855 
      7 S7         30.8157   -4.8239   -0.3534 S.3       12 UNK        -0.2931 
      8 C8         31.0338   -6.0448   -1.6840 C.3       12 UNK         0.0378 
      9 C9         31.0473   -5.3897   -3.0564 C.ar      12 UNK        -0.0802 
     10 C10        32.1743   -4.6841   -3.4926 C.ar      12 UNK        -0.0944 
     11 C11        32.1970   -4.0872   -4.7578 C.ar      12 UNK        -0.0787 
     12 C12        31.0784   -4.2126   -5.5887 C.ar      12 UNK        -0.0862 
     13 C13        29.9388   -4.8933   -5.1538 C.ar      12 UNK        -0.0733 
     14 C14        29.9334   -5.4932   -3.8926 C.ar      12 UNK        -0.0832 
     15 C15        28.7010   -4.9518   -6.0347 C.3       12 UNK         0.0240 
     16 S16        27.3188   -4.0171   -5.3062 S.3       12 UNK        -0.2522 
     17 C17        27.9896   -2.3186   -5.2475 C.3       12 UNK        -0.0967 
     18 CA         27.4753   -1.4376   -6.4059 C.3       5 UNK         0.0660 
     19 N          26.0101   -1.3948   -6.4769 N.am      5 UNK        -0.4015 
     20 C          25.3203   -0.8994   -7.5146 C.2       4 UNK         0.4946 
     21 O          25.8571   -0.4111   -8.5084 O.2       4 UNK        -0.5353 
     22 CA         23.7844   -0.8926   -7.4290 C.3       4 UNK         0.0277 
     23 CB         23.2082   -2.1337   -8.1278 C.3       4 UNK        -0.1981 
     24 N          23.2581   -0.8096   -6.0644 N.am      4 UNK        -0.4209 
     25 C          23.5019    0.1880   -5.2033 C.2       3 UNK         0.4942 
     26 O          24.2040    1.1647   -5.4733 O.2       3 UNK        -0.5208 
     27 CA         22.9124    0.0635   -3.7846 C.3       3 UNK         0.0250 
     28 CB         22.0271   -1.1858   -3.5648 C.3       3 UNK        -0.1990 
     29 N          23.9673    0.1276   -2.7660 N.am      3 UNK        -0.4232 
     30 C          25.0496   -0.6616   -2.6794 C.2       2 UNK         0.4993 
     31 O          25.2892   -1.5802   -3.4666 O.2       2 UNK        -0.5286 
     32 CA         26.0310   -0.3183   -1.5435 C.3       2 UNK         0.0209 
     33 CB         25.3593   -0.3842   -0.1539 C.3       2 UNK        -0.1931 
     34 N          27.2684   -1.1094   -1.5672 N.am      2 UNK        -0.4546 
     35 C          27.4588   -2.4085   -1.2893 C.2       1 UNK         0.5154 
     36 O          26.5518   -3.1799   -0.9691 O.2       1 UNK        -0.5181 
     37 C          28.1062   -0.0336   -6.3241 C.2       5 UNK         0.5014 
     38 O          29.2408    0.1410   -6.7693 O.2       5 UNK        -0.5248 
     39 N          27.3644    0.9511   -5.7986 N.am      6 UNK        -0.4434 
     40 CA         27.7869    2.3504   -5.7582 C.3       6 UNK         0.0363 
     41 CB         27.0320    3.0708   -4.6298 C.3       6 UNK        -0.1936 
     42 C          27.5835    3.0760   -7.1016 C.2       6 UNK         0.5081 
     43 O          28.1665    4.1437   -7.2882 O.2       6 UNK        -0.5248 
     44 N          26.7673    2.5078   -8.0007 N.am      7 UNK        -0.4718 
     45 CA         26.3978    3.1044   -9.2840 C.3       7 UNK         0.0273 
     46 CB         24.8683    3.0465   -9.4446 C.3       7 UNK        -0.1935 
     47 C          27.0940    2.4060  -10.4595 C.2       7 UNK         0.5018 
     48 O          27.7408    3.0800  -11.2613 O.2       7 UNK        -0.5186 
     49 N          26.9300    1.0799  -10.5593 N.am      8 UNK        -0.4240 
     50 CA         27.4096    0.2680  -11.6777 C.3       8 UNK         0.0235 
     51 CB         26.5506   -1.0027  -11.8017 C.3       8 UNK        -0.2000 
     52 C          28.8952   -0.0797  -11.5335 C.2       8 UNK         0.4941 
     53 O          29.6732    0.1945  -12.4480 O.2       8 UNK        -0.5273 
     54 N          29.2621   -0.6735  -10.3888 N.am      9 UNK        -0.4262 
     55 CA         30.6463   -1.0436  -10.0739 C.3       9 UNK         0.0264 
     56 CB         30.6561   -2.1685   -9.0256 C.3       9 UNK        -0.1955 
     57 C          31.4888    0.1573   -9.6066 C.2       9 UNK         0.5031 
     58 O          32.7102    0.1279   -9.7620 O.2       9 UNK        -0.5390 
     59 N          30.8183    1.1813   -9.0556 N.am      10 UNK        -0.4204 
     60 CA         31.3670    2.4165   -8.4849 C.3       10 UNK         0.0237 
     61 CB         32.0210    3.2873   -9.5788 C.3       10 UNK        -0.1985 
     62 C          32.2888    2.1591   -7.2762 C.2       10 UNK         0.4970 
     63 O          33.2958    2.8508   -7.1124 O.2       10 UNK        -0.4914 
     64 N          31.9247    1.1702   -6.4500 N.am      11 UNK        -0.4285 
     65 CA         32.6707    0.7696   -5.2464 C.3       11 UNK         0.1007 
     66 C          32.4512    1.7001   -4.0195 C.2       11 UNK         0.5703 
     67 N          31.4903    2.6168   -4.0367 N.am      11 UNK        -0.7361 
     68 O          33.1943    1.6118   -3.0456 O.2       11 UNK        -0.4986 
     69 C69        32.4209   -0.7205   -4.8954 C.3       12 UNK        -0.0947 
     70 S70        33.0934   -1.8266   -6.1788 S.3       12 UNK        -0.2240 
     71 C71        33.4460   -3.3426   -5.2246 C.3       12 UNK         0.0194 
     72 H72        31.4408   -0.2011    0.2813 H         1 UNK         0.0906 
     73 H73        32.3781   -0.2384   -1.2154 H         1 UNK         0.0906 
     74 H74        31.2039    1.0508   -0.9387 H         1 UNK         0.0906 
     75 H75        30.2778   -2.1400    0.0873 H         1 UNK         0.3140 
     76 H76        29.1615   -3.0927   -2.3736 H         1 UNK         0.1085 
     77 H77        28.6422   -4.2153    0.4170 H         1 UNK         0.0836 
     78 H78        28.5235   -5.0598   -1.1006 H         1 UNK         0.0836 
     79 H79        31.9777   -6.5692   -1.5281 H         1 UNK         0.0731 
     80 H80        30.2515   -6.8027   -1.6173 H         1 UNK         0.0731 
     81 H81        33.0347   -4.6027   -2.8423 H         1 UNK         0.1312 
     82 H82        31.0861   -3.7612   -6.5703 H         1 UNK         0.1406 
     83 H83        29.0515   -6.0229   -3.5582 H         1 UNK         0.1631 
     84 H84        28.3988   -5.9918   -6.1647 H         1 UNK         0.0717 
     85 H85        28.9083   -4.5622   -7.0327 H         1 UNK         0.0717 
     86 H86        29.0798   -2.3444   -5.2472 H         1 UNK         0.0934 
     87 H87        27.7160   -1.8815   -4.2877 H         1 UNK         0.0934 
     88 H88        27.8266   -1.8834   -7.3387 H         1 UNK         0.0739 
     89 H89        25.5165   -1.7430   -5.6622 H         1 UNK         0.3093 
     90 H90        23.4380   -0.0068   -7.9655 H         1 UNK         0.0818 
     91 H91        22.1194   -2.0979   -8.1691 H         1 UNK         0.0819 
     92 H92        23.5667   -2.2034   -9.1561 H         1 UNK         0.0819 
     93 H93        23.4968   -3.0546   -7.6193 H         1 UNK         0.0819 
     94 H94        22.6929   -1.5837   -5.7466 H         1 UNK         0.3041 
     95 H95        22.2847    0.9442   -3.6410 H         1 UNK         0.0784 
     96 H96        21.1864   -1.2054   -4.2596 H         1 UNK         0.0793 
     97 H97        22.5852   -2.1155   -3.6834 H         1 UNK         0.0793 
     98 H98        21.6040   -1.1882   -2.5601 H         1 UNK         0.0793 
     99 H99        23.8761    0.8844   -2.1029 H         1 UNK         0.3024 
    100 H100       26.3459    0.7128   -1.7138 H         1 UNK         0.1171 
    101 H101       26.0766   -0.1860    0.6427 H         1 UNK         0.0786 
    102 H102       24.9115   -1.3604    0.0353 H         1 UNK         0.0786 
    103 H103       24.5656    0.3571   -0.0576 H         1 UNK         0.0786 
    104 H104       28.0975   -0.6123   -1.8823 H         1 UNK         0.2977 
    105 H105       26.4177    0.7537   -5.4956 H         1 UNK         0.3127 
    106 H106       28.8525    2.3883   -5.5252 H         1 UNK         0.0770 
    107 H107       25.9569    3.0920   -4.8110 H         1 UNK         0.0814 
    108 H108       27.3657    4.1051   -4.5366 H         1 UNK         0.0814 
    109 H109       27.2025    2.5885   -3.6672 H         1 UNK         0.0814 
    110 H110       26.3627    1.6049   -7.7886 H         1 UNK         0.2983 
    111 H111       26.6906    4.1566   -9.3105 H         1 UNK         0.0947 
    112 H112       24.5590    3.4738  -10.3995 H         1 UNK         0.0806 
    113 H113       24.3690    3.6147   -8.6596 H         1 UNK         0.0806 
    114 H114       24.4896    2.0244   -9.4057 H         1 UNK         0.0806 
    115 H115       26.4188    0.5852   -9.8278 H         1 UNK         0.3000 
    116 H116       27.2898    0.8401  -12.6008 H         1 UNK         0.0850 
    117 H117       26.8863   -1.6208  -12.6355 H         1 UNK         0.0810 
    118 H118       25.5049   -0.7543  -11.9838 H         1 UNK         0.0810 
    119 H119       26.5925   -1.6174  -10.9017 H         1 UNK         0.0810 
    120 H120       28.5555   -0.8717   -9.6952 H         1 UNK         0.3040 
    121 H121       31.1135   -1.4349  -10.9806 H         1 UNK         0.0766 
    122 H122       31.6738   -2.5206   -8.8522 H         1 UNK         0.0812 
    123 H123       30.2634   -1.8390   -8.0649 H         1 UNK         0.0812 
    124 H124       30.0703   -3.0270   -9.3542 H         1 UNK         0.0812 
    125 H125       29.8259    1.0491   -8.9217 H         1 UNK         0.3205 
    126 H126       30.5148    2.9731   -8.0950 H         1 UNK         0.0754 
    127 H127       32.3053    4.2634   -9.1839 H         1 UNK         0.0769 
    128 H128       31.3342    3.4619  -10.4073 H         1 UNK         0.0769 
    129 H129       32.9223    2.8241   -9.9813 H         1 UNK         0.0769 
    130 H130       31.0574    0.6700   -6.6281 H         1 UNK         0.2981 
    131 H131       33.7337    0.8646   -5.4771 H         1 UNK         0.0541 
    132 H132       30.8932    2.7103   -4.8397 H         1 UNK         0.3459 
    133 H133       31.3721    3.2214   -3.2399 H         1 UNK         0.3459 
    134 H134       31.3537   -0.9197   -4.7854 H         1 UNK         0.0612 
    135 H135       32.8849   -0.9787   -3.9418 H         1 UNK         0.0612 
    136 H136       34.0301   -4.0157   -5.8530 H         1 UNK         0.0624 
    137 H137       34.0814   -3.0829   -4.3764 H         1 UNK         0.0624 
@<TRIPOS>BOND
     1    1    2 1    
     2    1   72 1    
     3    1   73 1    
     4    1   74 1    
     5    2    3 2    
     6    2    4 am   BACKBONE|DICT|INTERRES
     7    4    5 1    
     8    4   75 1    
     9    5    6 1    
    10    5   35 1    
    11    5   76 1    
    12    6    7 1    
    13    6   77 1    
    14    6   78 1    
    15    7    8 1    
    16    8    9 1    
    17    8   79 1    
    18    8   80 1    
    19    9   10 ar   
    20    9   14 ar   
    21   10   11 ar   
    22   10   81 1    
    23   11   12 ar   
    24   11   71 1    
    25   12   13 ar   
    26   12   82 1    
    27   13   14 ar   
    28   13   15 1    
    29   14   83 1    
    30   15   16 1    
    31   15   84 1    
    32   15   85 1    
    33   16   17 1    
    34   17   18 1    
    35   17   86 1    
    36   17   87 1    
    37   18   19 1    
    38   18   37 1    
    39   18   88 1    
    40   19   20 am   BACKBONE|DICT|INTERRES
    41   19   89 1    
    42   20   21 2    
    43   20   22 1    
    44   22   23 1    
    45   22   24 1    
    46   22   90 1    
    47   23   91 1    
    48   23   92 1    
    49   23   93 1    
    50   24   25 am   BACKBONE|DICT|INTERRES
    51   24   94 1    
    52   25   26 2    
    53   25   27 1    
    54   27   28 1    
    55   27   29 1    
    56   27   95 1    
    57   28   96 1    
    58   28   97 1    
    59   28   98 1    
    60   29   30 am   BACKBONE|DICT|INTERRES
    61   29   99 1    
    62   30   31 2    
    63   30   32 1    
    64   32   33 1    
    65   32   34 1    
    66   32  100 1    
    67   33  101 1    
    68   33  102 1    
    69   33  103 1    
    70   34   35 am   BACKBONE|DICT|INTERRES
    71   34  104 1    
    72   35   36 2    
    73   37   38 2    
    74   37   39 am   BACKBONE|DICT|INTERRES
    75   39   40 1    
    76   39  105 1    
    77   40   41 1    
    78   40   42 1    
    79   40  106 1    
    80   41  107 1    
    81   41  108 1    
    82   41  109 1    
    83   42   43 2    
    84   42   44 am   BACKBONE|DICT|INTERRES
    85   44   45 1    
    86   44  110 1    
    87   45   46 1    
    88   45   47 1    
    89   45  111 1    
    90   46  112 1    
    91   46  113 1    
    92   46  114 1    
    93   47   48 2    
    94   47   49 am   BACKBONE|DICT|INTERRES
    95   49   50 1    
    96   49  115 1    
    97   50   51 1    
    98   50   52 1    
    99   50  116 1    
   100   51  117 1    
   101   51  118 1    
   102   51  119 1    
   103   52   53 2    
   104   52   54 am   BACKBONE|DICT|INTERRES
   105   54   55 1    
   106   54  120 1    
   107   55   56 1    
   108   55   57 1    
   109   55  121 1    
   110   56  122 1    
   111   56  123 1    
   112   56  124 1    
   113   57   58 2    
   114   57   59 am   BACKBONE|DICT|INTERRES
   115   59   60 1    
   116   59  125 1    
   117   60   61 1    
   118   60   62 1    
   119   60  126 1    
   120   61  127 1    
   121   61  128 1    
   122   61  129 1    
   123   62   63 2    
   124   62   64 am   BACKBONE|DICT|INTERRES
   125   64   65 1    
   126   64  130 1    
   127   65   66 1    
   128   65   69 1    
   129   65  131 1    
   130   66   67 am   BACKBONE|DICT|INTERRES
   131   66   68 2    
   132   67  132 1    
   133   67  133 1    
   134   69   70 1    
   135   69  134 1    
   136   69  135 1    
   137   70   71 1    
   138   71  136 1    
   139   71  137 1    
@<TRIPOS>SUBSTRUCTURE
     1 UNK         1 GROUP             0       ****    0 ROOT    
