@<TRIPOS>MOLECULE
3R137
137   139    1
SMALL
USER_CHARGES


@<TRIPOS>ATOM
      1 CA         27.8345   -6.1643    0.9817 C.3       0 UNK        -0.2020 
      2 C          27.2969   -4.7792    1.3080 C.2       0 UNK         0.4855 
      3 O          26.4147   -4.6477    2.1564 O.2       0 UNK        -0.5197 
      4 N          27.8216   -3.7438    0.6397 N.am      1 UNK        -0.4892 
      5 CA         27.4082   -2.3433    0.8030 C.3       1 UNK         0.0835 
      6 C6         28.4910   -1.3627    0.2733 C.3       12 UNK        -0.0855 
      7 S7         28.7804   -1.4471   -1.5336 S.3       12 UNK        -0.2931 
      8 C8         30.2806   -2.4701   -1.6122 C.3       12 UNK         0.0378 
      9 C9         30.5638   -2.9439   -3.0303 C.ar      12 UNK        -0.0802 
     10 C10        31.7231   -2.5316   -3.6927 C.ar      12 UNK        -0.0944 
     11 C11        32.0212   -3.0144   -4.9703 C.ar      12 UNK        -0.0787 
     12 C12        31.1410   -3.9070   -5.5922 C.ar      12 UNK        -0.0862 
     13 C13        29.9775   -4.3292   -4.9397 C.ar      12 UNK        -0.0733 
     14 C14        29.6937   -3.8402   -3.6604 C.ar      12 UNK        -0.0832 
     15 C15        29.0660   -5.3685   -5.5832 C.3       12 UNK         0.0240 
     16 S16        28.1316   -4.7253   -7.0077 S.3       12 UNK        -0.2522 
     17 C17        26.9418   -3.5985   -6.2045 C.3       12 UNK        -0.0967 
     18 CA         26.5982   -2.3708   -7.0844 C.3       5 UNK         0.0660 
     19 N          25.4354   -1.6422   -6.5699 N.am      5 UNK        -0.4015 
     20 C          24.7543   -0.7140   -7.2602 C.2       4 UNK         0.4946 
     21 O          25.0014   -0.4162   -8.4269 O.2       4 UNK        -0.5353 
     22 CA         23.6337    0.0464   -6.5265 C.3       4 UNK         0.0277 
     23 CB         22.2989   -0.7034   -6.6597 C.3       4 UNK        -0.1981 
     24 N          23.9213    0.2845   -5.1112 N.am      4 UNK        -0.4209 
     25 C          24.9723    0.9775   -4.6509 C.2       3 UNK         0.4942 
     26 O          25.7603    1.5818   -5.3769 O.2       3 UNK        -0.5208 
     27 CA         25.2270    0.9499   -3.1337 C.3       3 UNK         0.0250 
     28 CB         24.6565    2.2143   -2.4728 C.3       3 UNK        -0.1990 
     29 N          24.7230   -0.2367   -2.4282 N.am      3 UNK        -0.4232 
     30 C          24.9995   -1.5128   -2.7339 C.2       2 UNK         0.4993 
     31 O          25.6341   -1.8616   -3.7316 O.2       2 UNK        -0.5286 
     32 CA         24.5273   -2.5754   -1.7301 C.3       2 UNK         0.0209 
     33 CB         24.1061   -3.8791   -2.4324 C.3       2 UNK        -0.1931 
     34 N          25.6271   -2.8594   -0.8134 N.am      2 UNK        -0.4546 
     35 C          26.0280   -2.0471    0.1753 C.2       1 UNK         0.5154 
     36 O          25.3750   -1.0779    0.5669 O.2       1 UNK        -0.5181 
     37 C          27.8007   -1.4233   -7.2481 C.2       5 UNK         0.5014 
     38 O          28.4193   -1.3990   -8.3132 O.2       5 UNK        -0.5248 
     39 N          28.0735   -0.6249   -6.2063 N.am      6 UNK        -0.4434 
     40 CA         29.1457    0.3693   -6.1890 C.3       6 UNK         0.0363 
     41 CB         29.2590    0.9814   -4.7836 C.3       6 UNK        -0.1936 
     42 C          28.9762    1.4658   -7.2529 C.2       6 UNK         0.5081 
     43 O          29.9727    1.8806   -7.8461 O.2       6 UNK        -0.5248 
     44 N          27.7249    1.8908   -7.4779 N.am      7 UNK        -0.4718 
     45 CA         27.3312    2.8521   -8.5074 C.3       7 UNK         0.0273 
     46 CB         25.9268    3.3895   -8.1893 C.3       7 UNK        -0.1935 
     47 C          27.3738    2.2717   -9.9314 C.2       7 UNK         0.5018 
     48 O          27.7325    3.0016  -10.8559 O.2       7 UNK        -0.5186 
     49 N          27.0003    0.9922  -10.0960 N.am      8 UNK        -0.4240 
     50 CA         27.0700    0.2707  -11.3731 C.3       8 UNK         0.0235 
     51 CB         26.2722   -1.0402  -11.2860 C.3       8 UNK        -0.2000 
     52 C          28.5156   -0.0074  -11.8157 C.2       8 UNK         0.4941 
     53 O          28.7986    0.0398  -13.0142 O.2       8 UNK        -0.5273 
     54 N          29.3944   -0.2798  -10.8430 N.am      9 UNK        -0.4262 
     55 CA         30.8443   -0.3475  -11.0038 C.3       9 UNK         0.0264 
     56 CB         31.4008   -1.3558   -9.9777 C.3       9 UNK        -0.1955 
     57 C          31.4422    1.0717  -10.8917 C.2       9 UNK         0.5031 
     58 O          31.0150    1.9716  -11.6176 O.2       9 UNK        -0.5390 
     59 N          32.4211    1.2588  -10.0008 N.am      10 UNK        -0.4204 
     60 CA         33.0343    2.5477   -9.6775 C.3       10 UNK         0.0237 
     61 CB         34.0474    2.9562  -10.7693 C.3       10 UNK        -0.1985 
     62 C          33.6578    2.4701   -8.2764 C.2       10 UNK         0.4970 
     63 O          34.8019    2.8890   -8.0899 O.2       10 UNK        -0.4914 
     64 N          32.9157    1.8852   -7.3277 N.am      11 UNK        -0.4285 
     65 CA         33.4107    1.5691   -5.9752 C.3       11 UNK         0.1007 
     66 C          33.1256    2.6809   -4.9260 C.2       11 UNK         0.5703 
     67 N          32.3962    3.7395   -5.2598 N.am      11 UNK        -0.7361 
     68 O          33.5855    2.5877   -3.7906 O.2       11 UNK        -0.4986 
     69 C69        32.9263    0.1814   -5.4743 C.3       12 UNK        -0.0947 
     70 S70        33.1271   -1.1499   -6.7082 S.3       12 UNK        -0.2240 
     71 C71        33.3225   -2.6157   -5.6526 C.3       12 UNK         0.0194 
     72 H72        27.0288   -6.8043    0.6229 H         1 UNK         0.0906 
     73 H73        28.6093   -6.1332    0.2158 H         1 UNK         0.0906 
     74 H74        28.2598   -6.6212    1.8749 H         1 UNK         0.0906 
     75 H75        28.5443   -3.9071   -0.0452 H         1 UNK         0.3140 
     76 H76        27.2989   -2.1575    1.8742 H         1 UNK         0.1085 
     77 H77        29.4320   -1.5305    0.7998 H         1 UNK         0.0836 
     78 H78        28.2088   -0.3361    0.5156 H         1 UNK         0.0836 
     79 H79        31.1202   -1.8957   -1.2173 H         1 UNK         0.0731 
     80 H80        30.1740   -3.3417   -0.9664 H         1 UNK         0.0731 
     81 H81        32.4084   -1.8528   -3.2042 H         1 UNK         0.1312 
     82 H82        31.3718   -4.2919   -6.5763 H         1 UNK         0.1406 
     83 H83        28.8031   -4.1696   -3.1429 H         1 UNK         0.1631 
     84 H84        28.3651   -5.7779   -4.8540 H         1 UNK         0.0717 
     85 H85        29.6743   -6.2091   -5.9200 H         1 UNK         0.0717 
     86 H86        26.0372   -4.1724   -5.9972 H         1 UNK         0.0934 
     87 H87        27.3228   -3.2827   -5.2321 H         1 UNK         0.0934 
     88 H88        26.3316   -2.7356   -8.0790 H         1 UNK         0.0739 
     89 H89        25.2338   -1.7723   -5.5814 H         1 UNK         0.3093 
     90 H90        23.5292    1.0205   -7.0088 H         1 UNK         0.0818 
     91 H91        21.4776   -0.1335   -6.2249 H         1 UNK         0.0819 
     92 H92        22.0520   -0.8743   -7.7086 H         1 UNK         0.0819 
     93 H93        22.3304   -1.6774   -6.1696 H         1 UNK         0.0819 
     94 H94        23.3257   -0.1759   -4.4389 H         1 UNK         0.3041 
     95 H95        26.3104    0.9558   -2.9975 H         1 UNK         0.0784 
     96 H96        25.0357    3.1146   -2.9590 H         1 UNK         0.0793 
     97 H97        23.5679    2.2448   -2.5328 H         1 UNK         0.0793 
     98 H98        24.9382    2.2747   -1.4213 H         1 UNK         0.0793 
     99 H99        24.2368   -0.0580   -1.5600 H         1 UNK         0.3024 
    100 H100       23.6712   -2.1916   -1.1703 H         1 UNK         0.1171 
    101 H101       23.2983   -3.6952   -3.1418 H         1 UNK         0.0786 
    102 H102       23.7453   -4.6156   -1.7142 H         1 UNK         0.0786 
    103 H103       24.9302   -4.3300   -2.9872 H         1 UNK         0.0786 
    104 H104       26.2484   -3.6098   -1.0757 H         1 UNK         0.2977 
    105 H105       27.5013   -0.6974   -5.3767 H         1 UNK         0.3127 
    106 H106       30.0696   -0.1629   -6.4197 H         1 UNK         0.0770 
    107 H107       28.3307    1.4618   -4.4747 H         1 UNK         0.0814 
    108 H108       30.0404    1.7413   -4.7479 H         1 UNK         0.0814 
    109 H109       29.5094    0.2228   -4.0416 H         1 UNK         0.0814 
    110 H110       26.9861    1.5527   -6.8661 H         1 UNK         0.2983 
    111 H111       28.0333    3.6881   -8.4722 H         1 UNK         0.0947 
    112 H112       25.6164    4.1332   -8.9244 H         1 UNK         0.0806 
    113 H113       25.8981    3.8683   -7.2102 H         1 UNK         0.0806 
    114 H114       25.1814    2.5934   -8.1932 H         1 UNK         0.0806 
    115 H115       26.6371    0.4760   -9.3013 H         1 UNK         0.3000 
    116 H116       26.6074    0.8972  -12.1387 H         1 UNK         0.0850 
    117 H117       26.3292   -1.5965  -12.2226 H         1 UNK         0.0810 
    118 H118       25.2175   -0.8487  -11.0887 H         1 UNK         0.0810 
    119 H119       26.6491   -1.6902  -10.4955 H         1 UNK         0.0810 
    120 H120       29.0436   -0.3670   -9.8930 H         1 UNK         0.3040 
    121 H121       31.0823   -0.7185  -12.0027 H         1 UNK         0.0766 
    122 H122       30.9563   -2.3409  -10.1220 H         1 UNK         0.0812 
    123 H123       31.1802   -1.0524   -8.9534 H         1 UNK         0.0812 
    124 H124       32.4800   -1.4803  -10.0747 H         1 UNK         0.0812 
    125 H125       32.7199    0.4756   -9.4348 H         1 UNK         0.3205 
    126 H126       32.2502    3.3064   -9.6270 H         1 UNK         0.0754 
    127 H127       34.5005    3.9223  -10.5431 H         1 UNK         0.0769 
    128 H128       33.5701    3.0494  -11.7448 H         1 UNK         0.0769 
    129 H129       34.8539    2.2277  -10.8601 H         1 UNK         0.0769 
    130 H130       31.9462    1.6564   -7.5264 H         1 UNK         0.2981 
    131 H131       34.4992    1.5017   -6.0220 H         1 UNK         0.0541 
    132 H132       32.0196    3.8275   -6.1899 H         1 UNK         0.3459 
    133 H133       32.2254    4.4576   -4.5739 H         1 UNK         0.3459 
    134 H134       31.8827    0.2151   -5.1721 H         1 UNK         0.0612 
    135 H135       33.4847   -0.0932   -4.5779 H         1 UNK         0.0612 
    136 H136       33.6802   -3.4410   -6.2699 H         1 UNK         0.0624 
    137 H137       34.1035   -2.4333   -4.9128 H         1 UNK         0.0624 
@<TRIPOS>BOND
     1    1    2 1    
     2    1   72 1    
     3    1   73 1    
     4    1   74 1    
     5    2    3 2    
     6    2    4 am   BACKBONE|DICT|INTERRES
     7    4    5 1    
     8    4   75 1    
     9    5    6 1    
    10    5   35 1    
    11    5   76 1    
    12    6    7 1    
    13    6   77 1    
    14    6   78 1    
    15    7    8 1    
    16    8    9 1    
    17    8   79 1    
    18    8   80 1    
    19    9   10 ar   
    20    9   14 ar   
    21   10   11 ar   
    22   10   81 1    
    23   11   12 ar   
    24   11   71 1    
    25   12   13 ar   
    26   12   82 1    
    27   13   14 ar   
    28   13   15 1    
    29   14   83 1    
    30   15   16 1    
    31   15   84 1    
    32   15   85 1    
    33   16   17 1    
    34   17   18 1    
    35   17   86 1    
    36   17   87 1    
    37   18   19 1    
    38   18   37 1    
    39   18   88 1    
    40   19   20 am   BACKBONE|DICT|INTERRES
    41   19   89 1    
    42   20   21 2    
    43   20   22 1    
    44   22   23 1    
    45   22   24 1    
    46   22   90 1    
    47   23   91 1    
    48   23   92 1    
    49   23   93 1    
    50   24   25 am   BACKBONE|DICT|INTERRES
    51   24   94 1    
    52   25   26 2    
    53   25   27 1    
    54   27   28 1    
    55   27   29 1    
    56   27   95 1    
    57   28   96 1    
    58   28   97 1    
    59   28   98 1    
    60   29   30 am   BACKBONE|DICT|INTERRES
    61   29   99 1    
    62   30   31 2    
    63   30   32 1    
    64   32   33 1    
    65   32   34 1    
    66   32  100 1    
    67   33  101 1    
    68   33  102 1    
    69   33  103 1    
    70   34   35 am   BACKBONE|DICT|INTERRES
    71   34  104 1    
    72   35   36 2    
    73   37   38 2    
    74   37   39 am   BACKBONE|DICT|INTERRES
    75   39   40 1    
    76   39  105 1    
    77   40   41 1    
    78   40   42 1    
    79   40  106 1    
    80   41  107 1    
    81   41  108 1    
    82   41  109 1    
    83   42   43 2    
    84   42   44 am   BACKBONE|DICT|INTERRES
    85   44   45 1    
    86   44  110 1    
    87   45   46 1    
    88   45   47 1    
    89   45  111 1    
    90   46  112 1    
    91   46  113 1    
    92   46  114 1    
    93   47   48 2    
    94   47   49 am   BACKBONE|DICT|INTERRES
    95   49   50 1    
    96   49  115 1    
    97   50   51 1    
    98   50   52 1    
    99   50  116 1    
   100   51  117 1    
   101   51  118 1    
   102   51  119 1    
   103   52   53 2    
   104   52   54 am   BACKBONE|DICT|INTERRES
   105   54   55 1    
   106   54  120 1    
   107   55   56 1    
   108   55   57 1    
   109   55  121 1    
   110   56  122 1    
   111   56  123 1    
   112   56  124 1    
   113   57   58 2    
   114   57   59 am   BACKBONE|DICT|INTERRES
   115   59   60 1    
   116   59  125 1    
   117   60   61 1    
   118   60   62 1    
   119   60  126 1    
   120   61  127 1    
   121   61  128 1    
   122   61  129 1    
   123   62   63 2    
   124   62   64 am   BACKBONE|DICT|INTERRES
   125   64   65 1    
   126   64  130 1    
   127   65   66 1    
   128   65   69 1    
   129   65  131 1    
   130   66   67 am   BACKBONE|DICT|INTERRES
   131   66   68 2    
   132   67  132 1    
   133   67  133 1    
   134   69   70 1    
   135   69  134 1    
   136   69  135 1    
   137   70   71 1    
   138   71  136 1    
   139   71  137 1    
@<TRIPOS>SUBSTRUCTURE
     1 UNK         1 GROUP             0       ****    0 ROOT    
