@<TRIPOS>MOLECULE
3R137
137   139    1
SMALL
USER_CHARGES


@<TRIPOS>ATOM
      1 CA         27.6047   -6.1239   -0.5532 C.3       0 UNK        -0.2020 
      2 C          27.0916   -4.9011    0.1929 C.2       0 UNK         0.4855 
      3 O          26.0315   -4.9630    0.8151 O.2       0 UNK        -0.5197 
      4 N          27.8394   -3.7905    0.1361 N.am      1 UNK        -0.4892 
      5 CA         27.5043   -2.5048    0.7614 C.3       1 UNK         0.0835 
      6 C6         28.7316   -1.5567    0.8187 C.3       12 UNK        -0.0855 
      7 S7         29.3661   -1.0401   -0.8158 S.3       12 UNK        -0.2931 
      8 C8         30.7345   -2.2058   -1.1132 C.3       12 UNK         0.0378 
      9 C9         30.7305   -2.7179   -2.5490 C.ar      12 UNK        -0.0802 
     10 C10        31.7510   -2.3658   -3.4395 C.ar      12 UNK        -0.0944 
     11 C11        31.7635   -2.8795   -4.7418 C.ar      12 UNK        -0.0787 
     12 C12        30.7413   -3.7398   -5.1565 C.ar      12 UNK        -0.0862 
     13 C13        29.7177   -4.0971   -4.2763 C.ar      12 UNK        -0.0733 
     14 C14        29.7171   -3.5794   -2.9802 C.ar      12 UNK        -0.0832 
     15 C15        28.6314   -5.0758   -4.6939 C.3       12 UNK         0.0240 
     16 S16        27.0801   -4.2257   -5.1114 S.3       12 UNK        -0.2522 
     17 C17        27.2808   -3.9386   -6.9054 C.3       12 UNK        -0.0967 
     18 CA         26.7627   -2.5693   -7.4167 C.3       5 UNK         0.0660 
     19 N          25.4513   -2.2080   -6.8823 N.am      5 UNK        -0.4015 
     20 C          24.3467   -2.0235   -7.6161 C.2       4 UNK         0.4946 
     21 O          24.2586   -2.2983   -8.8134 O.2       4 UNK        -0.5353 
     22 CA         23.1294   -1.3963   -6.9079 C.3       4 UNK         0.0277 
     23 CB         22.1499   -2.4931   -6.4591 C.3       4 UNK        -0.1981 
     24 N          23.4623   -0.5504   -5.7557 N.am      4 UNK        -0.4209 
     25 C          24.3067    0.4927   -5.7603 C.2       3 UNK         0.4942 
     26 O          24.8947    0.8933   -6.7636 O.2       3 UNK        -0.5208 
     27 CA         24.6046    1.1612   -4.4065 C.3       3 UNK         0.0250 
     28 CB         23.7339    2.4141   -4.2246 C.3       3 UNK        -0.1990 
     29 N          24.4330    0.2726   -3.2501 N.am      3 UNK        -0.4232 
     30 C          25.1181   -0.8606   -3.0390 C.2       2 UNK         0.4993 
     31 O          25.9686   -1.3036   -3.8155 O.2       2 UNK        -0.5286 
     32 CA         24.7246   -1.6724   -1.8021 C.3       2 UNK         0.0209 
     33 CB         23.8909   -2.8947   -2.2235 C.3       2 UNK        -0.1931 
     34 N          25.9224   -2.1376   -1.1063 N.am      2 UNK        -0.4546 
     35 C          26.2526   -1.8237    0.1552 C.2       1 UNK         0.5154 
     36 O          25.5975   -1.0507    0.8571 O.2       1 UNK        -0.5181 
     37 C          27.7647   -1.4225   -7.1926 C.2       5 UNK         0.5014 
     38 O          28.4627   -1.0553   -8.1385 O.2       5 UNK        -0.5248 
     39 N          27.8077   -0.8507   -5.9802 N.am      6 UNK        -0.4434 
     40 CA         28.8287    0.1155   -5.5652 C.3       6 UNK         0.0363 
     41 CB         28.7752    0.2752   -4.0430 C.3       6 UNK        -0.1936 
     42 C          28.7710    1.4921   -6.2502 C.2       6 UNK         0.5081 
     43 O          29.7944    2.1746   -6.2774 O.2       6 UNK        -0.5248 
     44 N          27.6034    1.8965   -6.7685 N.am      7 UNK        -0.4718 
     45 CA         27.4467    3.1212   -7.5615 C.3       7 UNK         0.0273 
     46 CB         26.2193    3.9044   -7.0646 C.3       7 UNK        -0.1935 
     47 C          27.3258    2.8147   -9.0637 C.2       7 UNK         0.5018 
     48 O          27.4787    3.7322   -9.8715 O.2       7 UNK        -0.5186 
     49 N          27.0468    1.5521   -9.4194 N.am      8 UNK        -0.4240 
     50 CA         26.9776    1.0768  -10.8013 C.3       8 UNK         0.0235 
     51 CB         26.1431   -0.2123  -10.8666 C.3       8 UNK        -0.2000 
     52 C          28.3803    0.8590  -11.3880 C.2       8 UNK         0.4941 
     53 O          28.6489    1.3150  -12.5006 O.2       8 UNK        -0.5273 
     54 N          29.2484    0.1832  -10.6253 N.am      9 UNK        -0.4262 
     55 CA         30.6691    0.0180  -10.9247 C.3       9 UNK         0.0264 
     56 CB         31.1222   -1.3551  -10.4022 C.3       9 UNK        -0.1955 
     57 C          31.4792    1.1484  -10.2709 C.2       9 UNK         0.5031 
     58 O          31.0022    1.7937   -9.3346 O.2       9 UNK        -0.5390 
     59 N          32.7133    1.3543  -10.7476 N.am      10 UNK        -0.4204 
     60 CA         33.6548    2.3630  -10.2453 C.3       10 UNK         0.0237 
     61 CB         34.6520    2.7142  -11.3665 C.3       10 UNK        -0.1985 
     62 C          34.3553    1.9190   -8.9425 C.2       10 UNK         0.4970 
     63 O          35.5862    1.9089   -8.8755 O.2       10 UNK        -0.4914 
     64 N          33.5595    1.5339   -7.9406 N.am      11 UNK        -0.4285 
     65 CA         34.0114    1.0908   -6.6148 C.3       11 UNK         0.1007 
     66 C          34.5233    2.2653   -5.7372 C.2       11 UNK         0.5703 
     67 N          35.3925    1.9829   -4.7759 N.am      11 UNK        -0.7361 
     68 O          34.1249    3.4184   -5.8952 O.2       11 UNK        -0.4986 
     69 C69        32.9054    0.2841   -5.8876 C.3       12 UNK        -0.0947 
     70 S70        32.4321   -1.2029   -6.8329 S.3       12 UNK        -0.2240 
     71 C71        32.8963   -2.5435   -5.6992 C.3       12 UNK         0.0194 
     72 H72        27.5904   -6.9957    0.1006 H         1 UNK         0.0906 
     73 H73        26.9676   -6.3325   -1.4124 H         1 UNK         0.0906 
     74 H74        28.6258   -5.9894   -0.9094 H         1 UNK         0.0906 
     75 H75        28.7186   -3.8069   -0.3557 H         1 UNK         0.3140 
     76 H76        27.2348   -2.7302    1.7960 H         1 UNK         0.1085 
     77 H77        29.5364   -2.0219    1.3901 H         1 UNK         0.0836 
     78 H78        28.4743   -0.6537    1.3759 H         1 UNK         0.0836 
     79 H79        31.6764   -1.7060   -0.8816 H         1 UNK         0.0731 
     80 H80        30.6698   -3.0572   -0.4351 H         1 UNK         0.0731 
     81 H81        32.5442   -1.7062   -3.1157 H         1 UNK         0.1312 
     82 H82        30.7534   -4.1413   -6.1605 H         1 UNK         0.1406 
     83 H83        28.9181   -3.8546   -2.3116 H         1 UNK         0.1631 
     84 H84        28.4356   -5.7659   -3.8719 H         1 UNK         0.0717 
     85 H85        28.9603   -5.6950   -5.5299 H         1 UNK         0.0717 
     86 H86        28.3240   -4.0803   -7.1945 H         1 UNK         0.0934 
     87 H87        26.7322   -4.7328   -7.4140 H         1 UNK         0.0934 
     88 H88        26.6883   -2.6671   -8.5017 H         1 UNK         0.0739 
     89 H89        25.4236   -1.9787   -5.8966 H         1 UNK         0.3093 
     90 H90        22.6260   -0.7607   -7.6392 H         1 UNK         0.0818 
     91 H91        21.2337   -2.0666   -6.0504 H         1 UNK         0.0819 
     92 H92        21.8619   -3.1266   -7.2994 H         1 UNK         0.0819 
     93 H93        22.5896   -3.1405   -5.6991 H         1 UNK         0.0819 
     94 H94        23.0304   -0.7982   -4.8781 H         1 UNK         0.3041 
     95 H95        25.6497    1.4754   -4.4270 H         1 UNK         0.0784 
     96 H96        23.8574    3.1012   -5.0629 H         1 UNK         0.0793 
     97 H97        22.6738    2.1651   -4.1618 H         1 UNK         0.0793 
     98 H98        24.0064    2.9594   -3.3207 H         1 UNK         0.0793 
     99 H99        23.7412    0.5559   -2.5704 H         1 UNK         0.3024 
    100 H100       24.1160   -1.0481   -1.1440 H         1 UNK         0.1171 
    101 H101       22.9740   -2.5910   -2.7300 H         1 UNK         0.0786 
    102 H102       23.6007   -3.4912   -1.3582 H         1 UNK         0.0786 
    103 H103       24.4420   -3.5445   -2.9055 H         1 UNK         0.0786 
    104 H104       26.5527   -2.7123   -1.6469 H         1 UNK         0.2977 
    105 H105       27.1957   -1.1873   -5.2394 H         1 UNK         0.3127 
    106 H106       29.7959   -0.3240   -5.8145 H         1 UNK         0.0770 
    107 H107       27.8606    0.7679   -3.7141 H         1 UNK         0.0814 
    108 H108       29.6183    0.8631   -3.6786 H         1 UNK         0.0814 
    109 H109       28.8226   -0.6990   -3.5601 H         1 UNK         0.0814 
    110 H110       26.7772    1.3116   -6.6793 H         1 UNK         0.2983 
    111 H111       28.3193    3.7669   -7.4411 H         1 UNK         0.0947 
    112 H112       26.1594    4.8773   -7.5539 H         1 UNK         0.0806 
    113 H113       26.2691    4.0843   -5.9907 H         1 UNK         0.0806 
    114 H114       25.2868    3.3824   -7.2773 H         1 UNK         0.0806 
    115 H115       26.9681    0.8585   -8.6902 H         1 UNK         0.3000 
    116 H116       26.4733    1.8345  -11.4054 H         1 UNK         0.0850 
    117 H117       26.0431   -0.5590  -11.8959 H         1 UNK         0.0810 
    118 H118       25.1366   -0.0538  -10.4786 H         1 UNK         0.0810 
    119 H119       26.5965   -1.0214  -10.2943 H         1 UNK         0.0810 
    120 H120       28.9537   -0.1330   -9.7034 H         1 UNK         0.3040 
    121 H121       30.8305    0.0530  -12.0042 H         1 UNK         0.0766 
    122 H122       30.9327   -1.4584   -9.3338 H         1 UNK         0.0812 
    123 H123       30.5945   -2.1626  -10.9096 H         1 UNK         0.0812 
    124 H124       32.1892   -1.5131  -10.5628 H         1 UNK         0.0812 
    125 H125       33.0516    0.7571  -11.4888 H         1 UNK         0.3205 
    126 H126       33.0975    3.2719  -10.0078 H         1 UNK         0.0754 
    127 H127       35.3371    3.5017  -11.0490 H         1 UNK         0.0769 
    128 H128       34.1370    3.0778  -12.2560 H         1 UNK         0.0769 
    129 H129       35.2556    1.8529  -11.6558 H         1 UNK         0.0769 
    130 H130       32.5554    1.5893   -8.0808 H         1 UNK         0.2981 
    131 H131       34.8595    0.4211   -6.7723 H         1 UNK         0.0541 
    132 H132       35.7299    2.7286   -4.1874 H         1 UNK         0.3459 
    133 H133       35.7242    1.0421   -4.6309 H         1 UNK         0.3459 
    134 H134       32.0172    0.8983   -5.7411 H         1 UNK         0.0612 
    135 H135       33.2342   -0.0105   -4.8900 H         1 UNK         0.0612 
    136 H136       33.1423   -3.4260   -6.2917 H         1 UNK         0.0624 
    137 H137       33.8063   -2.2837   -5.1565 H         1 UNK         0.0624 
@<TRIPOS>BOND
     1    1    2 1    
     2    1   72 1    
     3    1   73 1    
     4    1   74 1    
     5    2    3 2    
     6    2    4 am   BACKBONE|DICT|INTERRES
     7    4    5 1    
     8    4   75 1    
     9    5    6 1    
    10    5   35 1    
    11    5   76 1    
    12    6    7 1    
    13    6   77 1    
    14    6   78 1    
    15    7    8 1    
    16    8    9 1    
    17    8   79 1    
    18    8   80 1    
    19    9   10 ar   
    20    9   14 ar   
    21   10   11 ar   
    22   10   81 1    
    23   11   12 ar   
    24   11   71 1    
    25   12   13 ar   
    26   12   82 1    
    27   13   14 ar   
    28   13   15 1    
    29   14   83 1    
    30   15   16 1    
    31   15   84 1    
    32   15   85 1    
    33   16   17 1    
    34   17   18 1    
    35   17   86 1    
    36   17   87 1    
    37   18   19 1    
    38   18   37 1    
    39   18   88 1    
    40   19   20 am   BACKBONE|DICT|INTERRES
    41   19   89 1    
    42   20   21 2    
    43   20   22 1    
    44   22   23 1    
    45   22   24 1    
    46   22   90 1    
    47   23   91 1    
    48   23   92 1    
    49   23   93 1    
    50   24   25 am   BACKBONE|DICT|INTERRES
    51   24   94 1    
    52   25   26 2    
    53   25   27 1    
    54   27   28 1    
    55   27   29 1    
    56   27   95 1    
    57   28   96 1    
    58   28   97 1    
    59   28   98 1    
    60   29   30 am   BACKBONE|DICT|INTERRES
    61   29   99 1    
    62   30   31 2    
    63   30   32 1    
    64   32   33 1    
    65   32   34 1    
    66   32  100 1    
    67   33  101 1    
    68   33  102 1    
    69   33  103 1    
    70   34   35 am   BACKBONE|DICT|INTERRES
    71   34  104 1    
    72   35   36 2    
    73   37   38 2    
    74   37   39 am   BACKBONE|DICT|INTERRES
    75   39   40 1    
    76   39  105 1    
    77   40   41 1    
    78   40   42 1    
    79   40  106 1    
    80   41  107 1    
    81   41  108 1    
    82   41  109 1    
    83   42   43 2    
    84   42   44 am   BACKBONE|DICT|INTERRES
    85   44   45 1    
    86   44  110 1    
    87   45   46 1    
    88   45   47 1    
    89   45  111 1    
    90   46  112 1    
    91   46  113 1    
    92   46  114 1    
    93   47   48 2    
    94   47   49 am   BACKBONE|DICT|INTERRES
    95   49   50 1    
    96   49  115 1    
    97   50   51 1    
    98   50   52 1    
    99   50  116 1    
   100   51  117 1    
   101   51  118 1    
   102   51  119 1    
   103   52   53 2    
   104   52   54 am   BACKBONE|DICT|INTERRES
   105   54   55 1    
   106   54  120 1    
   107   55   56 1    
   108   55   57 1    
   109   55  121 1    
   110   56  122 1    
   111   56  123 1    
   112   56  124 1    
   113   57   58 2    
   114   57   59 am   BACKBONE|DICT|INTERRES
   115   59   60 1    
   116   59  125 1    
   117   60   61 1    
   118   60   62 1    
   119   60  126 1    
   120   61  127 1    
   121   61  128 1    
   122   61  129 1    
   123   62   63 2    
   124   62   64 am   BACKBONE|DICT|INTERRES
   125   64   65 1    
   126   64  130 1    
   127   65   66 1    
   128   65   69 1    
   129   65  131 1    
   130   66   67 am   BACKBONE|DICT|INTERRES
   131   66   68 2    
   132   67  132 1    
   133   67  133 1    
   134   69   70 1    
   135   69  134 1    
   136   69  135 1    
   137   70   71 1    
   138   71  136 1    
   139   71  137 1    
@<TRIPOS>SUBSTRUCTURE
     1 UNK         1 GROUP             0       ****    0 ROOT    
